Script started on 2023-09-23 12:27:31+05:30 [TERM="xterm-256color" TTY="/dev/pts/0" COLUMNS="188" LINES="27"]
To run a command as administrator (user "root"), use "sudo <command>".
See "man sudo_root" for details.

]0;bhavya@intellab16-OptiPlex-5090: ~/ChampSim[01;32mbhavya@intellab16-OptiPlex-5090[00m:[01;34m~/ChampSim[00m$ bin/champsim --warmup_instructions 200000000 --simulation_instructions 250000000 ~/Downloads/641.leela_s-862B.champsimtrace.xz | tee output.txt[C[C[C[C[C[C[C[C[C[C[C[C[C[C[C[C[C[C[C[C[C[C[C[C[C[C[C[C[C[C[C[C[C[C[C[C[C[C[C[C[C[C[C[C$ bin/champsim --warmup_instructions 200000000 --simulation_instructions 250000000 ~/Downloads/641.leela_s-862B.champsimtrace.xz | tee output.txt[A]0;bhavya@intellab16-OptiPlex-5090: ~/ChampSim[01;32mbhavya@intellab16-OptiPlex-5090[00m:[01;34m~/ChampSim[00m$ [1Pbin/champsim --warmup_instructions 200000000 --simulation_instructions 250000000 ~/Downloads/641.leela_s-862B.champsimtrace.xz | tee output.txt
[K[A[C[C[C[C[C[C[C[C[C[C[C[C[C[C[C[C[C[C[C[C[C[C[C[C[C[C[C[C[C[C[C[C[C[C[C[C[C[C[C[C[C[C[C[C[C[C[C[C[C[C[C[C[C[C[C[C[C[C[C[C[C[C[C[C[C[C[C[C[C[C[C[C[C[C[C[C[C[C[C[C[C[C[C[C[C[C[C[C[C[C[C[C[C[C[C[C[C[C[C[C[C[C[C[C[C[C[C[C[C[C[C[C[C[C[C[C[C[C[C[C[C[C[C[C[C[C[C[C[C[C[C[C[C[C[C[C[C[C[C[C[C[C[C[C[C[C[C[C[C[C[C[C[C[C[C[C[C[C[C[C[C[C[C[C[C[C[C[C[C[C[C[C[C[C[C[C[C[C[C[C[C[C[C[C[C[C[C[K[K[K[K[K[K[K[K[K[K[K[K[K[K[K[K[K[Kz
WARNING: physical memory size is smaller than virtual memory size.
WARNING: option --warmup_instructions is deprecated. Use --warmup-instructions instead.
WARNING: option --simulation_instructions is deprecated. Use --simulation-instructions instead.

*** ChampSim Multicore Out-of-Order Simulator ***
Warmup Instructions: 200000000
Simulation Instructions: 250000000
Number of CPUs: 1
Page size: 4096

Off-chip DRAM Size: 4 GiB Channels: 1 Width: 64-bit Data Race: 3200 MT/s
Heartbeat CPU 0 instructions: 10000001 cycles: 2508410 heartbeat IPC: 3.987 cumulative IPC: 3.987 (Simulation time: 00 hr 00 min 22 sec)
Heartbeat CPU 0 instructions: 20000000 cycles: 5017470 heartbeat IPC: 3.986 cumulative IPC: 3.986 (Simulation time: 00 hr 00 min 45 sec)
Heartbeat CPU 0 instructions: 30000003 cycles: 7526527 heartbeat IPC: 3.986 cumulative IPC: 3.986 (Simulation time: 00 hr 01 min 08 sec)
Heartbeat CPU 0 instructions: 40000003 cycles: 10034899 heartbeat IPC: 3.987 cumulative IPC: 3.986 (Simulation time: 00 hr 01 min 30 sec)
Heartbeat CPU 0 instructions: 50000001 cycles: 12543281 heartbeat IPC: 3.987 cumulative IPC: 3.986 (Simulation time: 00 hr 01 min 53 sec)
Heartbeat CPU 0 instructions: 60000000 cycles: 15053057 heartbeat IPC: 3.984 cumulative IPC: 3.986 (Simulation time: 00 hr 02 min 16 sec)
Heartbeat CPU 0 instructions: 70000002 cycles: 17562126 heartbeat IPC: 3.986 cumulative IPC: 3.986 (Simulation time: 00 hr 02 min 38 sec)
Heartbeat CPU 0 instructions: 80000003 cycles: 20071184 heartbeat IPC: 3.986 cumulative IPC: 3.986 (Simulation time: 00 hr 03 min 00 sec)
Heartbeat CPU 0 instructions: 90000003 cycles: 22579552 heartbeat IPC: 3.987 cumulative IPC: 3.986 (Simulation time: 00 hr 03 min 23 sec)
Heartbeat CPU 0 instructions: 100000001 cycles: 25087920 heartbeat IPC: 3.987 cumulative IPC: 3.986 (Simulation time: 00 hr 03 min 45 sec)
Heartbeat CPU 0 instructions: 110000002 cycles: 27596994 heartbeat IPC: 3.986 cumulative IPC: 3.986 (Simulation time: 00 hr 04 min 08 sec)
Heartbeat CPU 0 instructions: 120000001 cycles: 30105368 heartbeat IPC: 3.987 cumulative IPC: 3.986 (Simulation time: 00 hr 04 min 30 sec)
Heartbeat CPU 0 instructions: 130000003 cycles: 32614443 heartbeat IPC: 3.986 cumulative IPC: 3.986 (Simulation time: 00 hr 04 min 53 sec)
Heartbeat CPU 0 instructions: 140000000 cycles: 35123518 heartbeat IPC: 3.986 cumulative IPC: 3.986 (Simulation time: 00 hr 05 min 15 sec)
Heartbeat CPU 0 instructions: 150000001 cycles: 37632575 heartbeat IPC: 3.986 cumulative IPC: 3.986 (Simulation time: 00 hr 05 min 38 sec)
Heartbeat CPU 0 instructions: 160000000 cycles: 40140936 heartbeat IPC: 3.987 cumulative IPC: 3.986 (Simulation time: 00 hr 06 min 00 sec)
Heartbeat CPU 0 instructions: 170000001 cycles: 42650011 heartbeat IPC: 3.986 cumulative IPC: 3.986 (Simulation time: 00 hr 06 min 22 sec)
Heartbeat CPU 0 instructions: 180000002 cycles: 45159783 heartbeat IPC: 3.984 cumulative IPC: 3.986 (Simulation time: 00 hr 06 min 45 sec)
Heartbeat CPU 0 instructions: 190000002 cycles: 47668858 heartbeat IPC: 3.986 cumulative IPC: 3.986 (Simulation time: 00 hr 07 min 08 sec)
Heartbeat CPU 0 instructions: 200000003 cycles: 50177223 heartbeat IPC: 3.987 cumulative IPC: 3.986 (Simulation time: 00 hr 07 min 31 sec)
Warmup finished CPU 0 instructions: 200000003 cycles: 50177224 cumulative IPC: 3.986 (Simulation time: 00 hr 07 min 31 sec)
Warmup complete CPU 0 instructions: 200000003 cycles: 50177224 cumulative IPC: 3.986 (Simulation time: 00 hr 07 min 31 sec)
Heartbeat CPU 0 instructions: 210000001 cycles: 55406446 heartbeat IPC: 1.912 cumulative IPC: 1.912 (Simulation time: 00 hr 08 min 05 sec)
Heartbeat CPU 0 instructions: 220000001 cycles: 60603619 heartbeat IPC: 1.924 cumulative IPC: 1.918 (Simulation time: 00 hr 08 min 40 sec)
Heartbeat CPU 0 instructions: 230000000 cycles: 65803376 heartbeat IPC: 1.923 cumulative IPC: 1.92 (Simulation time: 00 hr 09 min 14 sec)
Heartbeat CPU 0 instructions: 240000000 cycles: 70968793 heartbeat IPC: 1.936 cumulative IPC: 1.924 (Simulation time: 00 hr 09 min 48 sec)
Heartbeat CPU 0 instructions: 250000001 cycles: 76124967 heartbeat IPC: 1.939 cumulative IPC: 1.927 (Simulation time: 00 hr 10 min 22 sec)
Heartbeat CPU 0 instructions: 260000000 cycles: 81296659 heartbeat IPC: 1.934 cumulative IPC: 1.928 (Simulation time: 00 hr 10 min 56 sec)
Heartbeat CPU 0 instructions: 270000000 cycles: 86482864 heartbeat IPC: 1.928 cumulative IPC: 1.928 (Simulation time: 00 hr 11 min 31 sec)
Heartbeat CPU 0 instructions: 280000001 cycles: 91657416 heartbeat IPC: 1.933 cumulative IPC: 1.929 (Simulation time: 00 hr 12 min 05 sec)
Heartbeat CPU 0 instructions: 290000001 cycles: 96864363 heartbeat IPC: 1.921 cumulative IPC: 1.928 (Simulation time: 00 hr 12 min 40 sec)
Heartbeat CPU 0 instructions: 300000000 cycles: 102052269 heartbeat IPC: 1.928 cumulative IPC: 1.928 (Simulation time: 00 hr 13 min 14 sec)
Heartbeat CPU 0 instructions: 310000002 cycles: 107226344 heartbeat IPC: 1.933 cumulative IPC: 1.928 (Simulation time: 00 hr 13 min 49 sec)
Heartbeat CPU 0 instructions: 320000000 cycles: 112440266 heartbeat IPC: 1.918 cumulative IPC: 1.927 (Simulation time: 00 hr 14 min 23 sec)
Heartbeat CPU 0 instructions: 330000002 cycles: 117621361 heartbeat IPC: 1.93 cumulative IPC: 1.928 (Simulation time: 00 hr 14 min 58 sec)
Heartbeat CPU 0 instructions: 340000002 cycles: 122826456 heartbeat IPC: 1.921 cumulative IPC: 1.927 (Simulation time: 00 hr 15 min 31 sec)
Heartbeat CPU 0 instructions: 350000004 cycles: 127998055 heartbeat IPC: 1.934 cumulative IPC: 1.928 (Simulation time: 00 hr 16 min 05 sec)
Heartbeat CPU 0 instructions: 360000002 cycles: 133211438 heartbeat IPC: 1.918 cumulative IPC: 1.927 (Simulation time: 00 hr 16 min 39 sec)
Heartbeat CPU 0 instructions: 370000004 cycles: 138415779 heartbeat IPC: 1.921 cumulative IPC: 1.927 (Simulation time: 00 hr 17 min 13 sec)
Heartbeat CPU 0 instructions: 380000001 cycles: 143621632 heartbeat IPC: 1.921 cumulative IPC: 1.926 (Simulation time: 00 hr 17 min 47 sec)
Heartbeat CPU 0 instructions: 390000003 cycles: 148811670 heartbeat IPC: 1.927 cumulative IPC: 1.926 (Simulation time: 00 hr 18 min 20 sec)
Heartbeat CPU 0 instructions: 400000004 cycles: 153999656 heartbeat IPC: 1.928 cumulative IPC: 1.926 (Simulation time: 00 hr 18 min 55 sec)
Heartbeat CPU 0 instructions: 410000000 cycles: 159179905 heartbeat IPC: 1.93 cumulative IPC: 1.927 (Simulation time: 00 hr 19 min 28 sec)
Heartbeat CPU 0 instructions: 420000000 cycles: 164410493 heartbeat IPC: 1.912 cumulative IPC: 1.926 (Simulation time: 00 hr 20 min 03 sec)
Heartbeat CPU 0 instructions: 430000003 cycles: 169586495 heartbeat IPC: 1.932 cumulative IPC: 1.926 (Simulation time: 00 hr 20 min 37 sec)
Heartbeat CPU 0 instructions: 440000000 cycles: 174763166 heartbeat IPC: 1.932 cumulative IPC: 1.926 (Simulation time: 00 hr 21 min 10 sec)
Heartbeat CPU 0 instructions: 450000002 cycles: 179944779 heartbeat IPC: 1.93 cumulative IPC: 1.927 (Simulation time: 00 hr 21 min 44 sec)
Simulation finished CPU 0 instructions: 250000001 cycles: 129767557 cumulative IPC: 1.927 (Simulation time: 00 hr 21 min 44 sec)
Simulation complete CPU 0 instructions: 250000001 cycles: 129767557 cumulative IPC: 1.927 (Simulation time: 00 hr 21 min 44 sec)

ChampSim completed all CPUs

=== Simulation ===
CPU 0 runs /home/bhavya/Downloads/641.leela_s-862B.champsimtrace.xz
Region of Interest Statistics

CPU 0 cumulative IPC: 1.927 instructions: 250000001 cycles: 129767557
CPU 0 Branch Prediction Accuracy: 89.39% MPKI: 17.45 Average ROB Occupancy at Mispredict: 20.8
Branch type MPKI
BRANCH_DIRECT_JUMP: 0.177
BRANCH_INDIRECT: 0.00044
BRANCH_CONDITIONAL: 16.9
BRANCH_DIRECT_CALL: 0.339
BRANCH_INDIRECT_CALL: 0
BRANCH_RETURN: 0.0428

LLC TOTAL        ACCESS:       5367 HIT:       3665 MISS:       1702
LLC LOAD         ACCESS:       3167 HIT:       2708 MISS:        459
LLC RFO          ACCESS:       1212 HIT:          3 MISS:       1209
LLC PREFETCH     ACCESS:          0 HIT:          0 MISS:          0
LLC WRITE        ACCESS:        912 HIT:        912 MISS:          0
LLC TRANSLATION  ACCESS:         76 HIT:         42 MISS:         34
LLC PREFETCH REQUESTED:          0 ISSUED:          0 USEFUL:          0 USELESS:          0
LLC AVERAGE MISS LATENCY: 109.1 cycles
cpu0_DTLB TOTAL        ACCESS:   58673211 HIT:   58519852 MISS:     153359
cpu0_DTLB LOAD         ACCESS:   58673211 HIT:   58519852 MISS:     153359
cpu0_DTLB RFO          ACCESS:          0 HIT:          0 MISS:          0
cpu0_DTLB PREFETCH     ACCESS:          0 HIT:          0 MISS:          0
cpu0_DTLB WRITE        ACCESS:          0 HIT:          0 MISS:          0
cpu0_DTLB TRANSLATION  ACCESS:          0 HIT:          0 MISS:          0
cpu0_DTLB PREFETCH REQUESTED:          0 ISSUED:          0 USEFUL:          0 USELESS:          0
cpu0_DTLB AVERAGE MISS LATENCY: 5.418 cycles
cpu0_ITLB TOTAL        ACCESS:   11253495 HIT:   11253495 MISS:          0
cpu0_ITLB LOAD         ACCESS:   11253495 HIT:   11253495 MISS:          0
cpu0_ITLB RFO          ACCESS:          0 HIT:          0 MISS:          0
cpu0_ITLB PREFETCH     ACCESS:          0 HIT:          0 MISS:          0
cpu0_ITLB WRITE        ACCESS:          0 HIT:          0 MISS:          0
cpu0_ITLB TRANSLATION  ACCESS:          0 HIT:          0 MISS:          0
cpu0_ITLB PREFETCH REQUESTED:          0 ISSUED:          0 USEFUL:          0 USELESS:          0
cpu0_ITLB AVERAGE MISS LATENCY: -nan cycles
cpu0_L1D TOTAL        ACCESS:   76810233 HIT:   75835321 MISS:     974912
cpu0_L1D LOAD         ACCESS:   47772254 HIT:   47056087 MISS:     716167
cpu0_L1D RFO          ACCESS:          0 HIT:          0 MISS:          0
cpu0_L1D PREFETCH     ACCESS:          0 HIT:          0 MISS:          0
cpu0_L1D WRITE        ACCESS:   29037804 HIT:   28779230 MISS:     258574
cpu0_L1D TRANSLATION  ACCESS:        175 HIT:          4 MISS:        171
cpu0_L1D PREFETCH REQUESTED:          0 ISSUED:          0 USEFUL:          0 USELESS:          0
cpu0_L1D AVERAGE MISS LATENCY: 4.319 cycles
cpu0_L1I TOTAL        ACCESS:   12678673 HIT:   12654224 MISS:      24449
cpu0_L1I LOAD         ACCESS:   12678673 HIT:   12654224 MISS:      24449
cpu0_L1I RFO          ACCESS:          0 HIT:          0 MISS:          0
cpu0_L1I PREFETCH     ACCESS:          0 HIT:          0 MISS:          0
cpu0_L1I WRITE        ACCESS:          0 HIT:          0 MISS:          0
cpu0_L1I TRANSLATION  ACCESS:          0 HIT:          0 MISS:          0
cpu0_L1I PREFETCH REQUESTED:          0 ISSUED:          0 USEFUL:          0 USELESS:          0
cpu0_L1I AVERAGE MISS LATENCY: 5.327 cycles
cpu0_L2C TOTAL        ACCESS:     601915 HIT:     597459 MISS:       4456
cpu0_L2C LOAD         ACCESS:     451486 HIT:     448319 MISS:       3167
cpu0_L2C RFO          ACCESS:      52472 HIT:      51260 MISS:       1212
cpu0_L2C PREFETCH     ACCESS:          0 HIT:          0 MISS:          0
cpu0_L2C WRITE        ACCESS:      97786 HIT:      97785 MISS:          1
cpu0_L2C TRANSLATION  ACCESS:        171 HIT:         95 MISS:         76
cpu0_L2C PREFETCH REQUESTED:          0 ISSUED:          0 USEFUL:          0 USELESS:          0
cpu0_L2C AVERAGE MISS LATENCY: 62.05 cycles
cpu0_STLB TOTAL        ACCESS:     111602 HIT:     111427 MISS:        175
cpu0_STLB LOAD         ACCESS:     111602 HIT:     111427 MISS:        175
cpu0_STLB RFO          ACCESS:          0 HIT:          0 MISS:          0
cpu0_STLB PREFETCH     ACCESS:          0 HIT:          0 MISS:          0
cpu0_STLB WRITE        ACCESS:          0 HIT:          0 MISS:          0
cpu0_STLB TRANSLATION  ACCESS:          0 HIT:          0 MISS:          0
cpu0_STLB PREFETCH REQUESTED:          0 ISSUED:          0 USEFUL:          0 USELESS:          0
cpu0_STLB AVERAGE MISS LATENCY: 258.2 cycles

DRAM Statistics

Channel 0 RQ ROW_BUFFER_HIT:       1034
  ROW_BUFFER_MISS:        668
 AVG DBUS CONGESTED CYCLE: 3.798
WQ ROW_BUFFER_HIT: Channel 0 
  ROW_BUFFER_MISS:          0
  FULL:          0
]0;bhavya@intellab16-OptiPlex-5090: ~/ChampSim[01;32mbhavya@intellab16-OptiPlex-5090[00m:[01;34m~/ChampSim[00m$ bin/champsim --warmup_instructions 200000000 --simulation_instructions 250000000 ~/Downloads/641.leela_s-862B.champsimtrace.xz[C[C[C[C[C[C[C[C[C[C[C[C[C[C[C[C[C[C[C[C[C[C[C[C[C[C[C[C[C[C[C[C[C[C[C[C[C[C[C[C[C[C[C[C[Kce[K[Kexit
exit

Script done on 2023-09-23 12:51:28+05:30 [COMMAND_EXIT_CODE="0"]
