Script started on 2023-09-23 12:53:28+05:30 [TERM="xterm-256color" TTY="/dev/pts/2" COLUMNS="173" LINES="13"]
To run a command as administrator (user "root"), use "sudo <command>".
See "man sudo_root" for details.

]0;bhavya@intellab16-OptiPlex-5090: ~/ChampSim[01;32mbhavya@intellab16-OptiPlex-5090[00m:[01;34m~/ChampSim[00m$ exitbin/champsim --warmup_instructions 200000000 --simulation_instructions 250000000 ~/Downloads/641.leela_s-862B.champsimtrace.xz[K[K[K[K[K[K[K[K[K[K[K[K[K[K[K[K[K[K[K[K[K[K[K[K[K[K[K[K[K[K[K[K[K603.bwaves_s-3699B.champsimtrace.xz
WARNING: physical memory size is smaller than virtual memory size.
WARNING: option --warmup_instructions is deprecated. Use --warmup-instructions instead.
WARNING: option --simulation_instructions is deprecated. Use --simulation-instructions instead.

*** ChampSim Multicore Out-of-Order Simulator ***
Warmup Instructions: 200000000
Simulation Instructions: 250000000
Number of CPUs: 1
Page size: 4096

Off-chip DRAM Size: 4 GiB Channels: 1 Width: 64-bit Data Race: 3200 MT/s
Heartbeat CPU 0 instructions: 10000001 cycles: 2520269 heartbeat IPC: 3.968 cumulative IPC: 3.968 (Simulation time: 00 hr 00 min 19 sec)
Heartbeat CPU 0 instructions: 20000003 cycles: 5034634 heartbeat IPC: 3.977 cumulative IPC: 3.972 (Simulation time: 00 hr 00 min 39 sec)
Heartbeat CPU 0 instructions: 30000000 cycles: 7547814 heartbeat IPC: 3.979 cumulative IPC: 3.975 (Simulation time: 00 hr 01 min 00 sec)
Heartbeat CPU 0 instructions: 40000000 cycles: 10067930 heartbeat IPC: 3.968 cumulative IPC: 3.973 (Simulation time: 00 hr 01 min 19 sec)
Heartbeat CPU 0 instructions: 50000001 cycles: 12588011 heartbeat IPC: 3.968 cumulative IPC: 3.972 (Simulation time: 00 hr 01 min 39 sec)
Heartbeat CPU 0 instructions: 60000000 cycles: 15109217 heartbeat IPC: 3.966 cumulative IPC: 3.971 (Simulation time: 00 hr 01 min 58 sec)
Heartbeat CPU 0 instructions: 70000004 cycles: 17630192 heartbeat IPC: 3.967 cumulative IPC: 3.97 (Simulation time: 00 hr 02 min 17 sec)
Heartbeat CPU 0 instructions: 80000003 cycles: 20152000 heartbeat IPC: 3.965 cumulative IPC: 3.97 (Simulation time: 00 hr 02 min 36 sec)
Heartbeat CPU 0 instructions: 90000001 cycles: 22673152 heartbeat IPC: 3.966 cumulative IPC: 3.969 (Simulation time: 00 hr 02 min 56 sec)
Heartbeat CPU 0 instructions: 100000003 cycles: 25193780 heartbeat IPC: 3.967 cumulative IPC: 3.969 (Simulation time: 00 hr 03 min 15 sec)
Heartbeat CPU 0 instructions: 110000002 cycles: 27714302 heartbeat IPC: 3.967 cumulative IPC: 3.969 (Simulation time: 00 hr 03 min 35 sec)
Heartbeat CPU 0 instructions: 120000000 cycles: 30234405 heartbeat IPC: 3.968 cumulative IPC: 3.969 (Simulation time: 00 hr 03 min 55 sec)
Heartbeat CPU 0 instructions: 130000001 cycles: 32752157 heartbeat IPC: 3.972 cumulative IPC: 3.969 (Simulation time: 00 hr 04 min 15 sec)
Heartbeat CPU 0 instructions: 140000001 cycles: 35268604 heartbeat IPC: 3.974 cumulative IPC: 3.97 (Simulation time: 00 hr 04 min 35 sec)
Heartbeat CPU 0 instructions: 150000002 cycles: 37786806 heartbeat IPC: 3.971 cumulative IPC: 3.97 (Simulation time: 00 hr 04 min 54 sec)
Heartbeat CPU 0 instructions: 160000002 cycles: 40305485 heartbeat IPC: 3.97 cumulative IPC: 3.97 (Simulation time: 00 hr 05 min 13 sec)
Heartbeat CPU 0 instructions: 170000003 cycles: 42822538 heartbeat IPC: 3.973 cumulative IPC: 3.97 (Simulation time: 00 hr 05 min 33 sec)
Heartbeat CPU 0 instructions: 180000000 cycles: 45338745 heartbeat IPC: 3.974 cumulative IPC: 3.97 (Simulation time: 00 hr 05 min 53 sec)
Heartbeat CPU 0 instructions: 190000000 cycles: 47856143 heartbeat IPC: 3.972 cumulative IPC: 3.97 (Simulation time: 00 hr 06 min 12 sec)
Heartbeat CPU 0 instructions: 200000002 cycles: 50376115 heartbeat IPC: 3.968 cumulative IPC: 3.97 (Simulation time: 00 hr 06 min 31 sec)
Warmup finished CPU 0 instructions: 200000002 cycles: 50376116 cumulative IPC: 3.97 (Simulation time: 00 hr 06 min 31 sec)
Warmup complete CPU 0 instructions: 200000002 cycles: 50376116 cumulative IPC: 3.97 (Simulation time: 00 hr 06 min 31 sec)
Heartbeat CPU 0 instructions: 210000001 cycles: 54246599 heartbeat IPC: 2.584 cumulative IPC: 2.584 (Simulation time: 00 hr 06 min 58 sec)
Heartbeat CPU 0 instructions: 220000004 cycles: 58133534 heartbeat IPC: 2.573 cumulative IPC: 2.578 (Simulation time: 00 hr 07 min 24 sec)
Heartbeat CPU 0 instructions: 230000000 cycles: 62010600 heartbeat IPC: 2.579 cumulative IPC: 2.579 (Simulation time: 00 hr 07 min 50 sec)
Heartbeat CPU 0 instructions: 240000001 cycles: 65884280 heartbeat IPC: 2.582 cumulative IPC: 2.579 (Simulation time: 00 hr 08 min 16 sec)
Heartbeat CPU 0 instructions: 250000000 cycles: 69766040 heartbeat IPC: 2.576 cumulative IPC: 2.579 (Simulation time: 00 hr 08 min 42 sec)
Heartbeat CPU 0 instructions: 260000000 cycles: 73629782 heartbeat IPC: 2.588 cumulative IPC: 2.58 (Simulation time: 00 hr 09 min 09 sec)
Heartbeat CPU 0 instructions: 270000003 cycles: 77501129 heartbeat IPC: 2.583 cumulative IPC: 2.581 (Simulation time: 00 hr 09 min 35 sec)
Heartbeat CPU 0 instructions: 280000003 cycles: 81389260 heartbeat IPC: 2.572 cumulative IPC: 2.58 (Simulation time: 00 hr 10 min 02 sec)
Heartbeat CPU 0 instructions: 290000001 cycles: 85260102 heartbeat IPC: 2.583 cumulative IPC: 2.58 (Simulation time: 00 hr 10 min 29 sec)
Heartbeat CPU 0 instructions: 300000001 cycles: 89134994 heartbeat IPC: 2.581 cumulative IPC: 2.58 (Simulation time: 00 hr 10 min 56 sec)
Heartbeat CPU 0 instructions: 310000000 cycles: 93020888 heartbeat IPC: 2.573 cumulative IPC: 2.579 (Simulation time: 00 hr 11 min 22 sec)
Heartbeat CPU 0 instructions: 320000002 cycles: 96879800 heartbeat IPC: 2.591 cumulative IPC: 2.58 (Simulation time: 00 hr 11 min 48 sec)
Heartbeat CPU 0 instructions: 330000004 cycles: 100748569 heartbeat IPC: 2.585 cumulative IPC: 2.581 (Simulation time: 00 hr 12 min 14 sec)
Heartbeat CPU 0 instructions: 340000001 cycles: 104614627 heartbeat IPC: 2.587 cumulative IPC: 2.581 (Simulation time: 00 hr 12 min 41 sec)
Heartbeat CPU 0 instructions: 350000001 cycles: 108490589 heartbeat IPC: 2.58 cumulative IPC: 2.581 (Simulation time: 00 hr 13 min 07 sec)
Heartbeat CPU 0 instructions: 360000004 cycles: 112357175 heartbeat IPC: 2.586 cumulative IPC: 2.581 (Simulation time: 00 hr 13 min 33 sec)
Heartbeat CPU 0 instructions: 370000002 cycles: 116246168 heartbeat IPC: 2.571 cumulative IPC: 2.581 (Simulation time: 00 hr 13 min 59 sec)
Heartbeat CPU 0 instructions: 380000000 cycles: 120066279 heartbeat IPC: 2.618 cumulative IPC: 2.583 (Simulation time: 00 hr 14 min 25 sec)
Heartbeat CPU 0 instructions: 390000000 cycles: 123929884 heartbeat IPC: 2.588 cumulative IPC: 2.583 (Simulation time: 00 hr 14 min 51 sec)
Heartbeat CPU 0 instructions: 400000000 cycles: 127737843 heartbeat IPC: 2.626 cumulative IPC: 2.585 (Simulation time: 00 hr 15 min 18 sec)
Heartbeat CPU 0 instructions: 410000000 cycles: 131575080 heartbeat IPC: 2.606 cumulative IPC: 2.586 (Simulation time: 00 hr 15 min 44 sec)
Heartbeat CPU 0 instructions: 420000004 cycles: 135420249 heartbeat IPC: 2.601 cumulative IPC: 2.587 (Simulation time: 00 hr 16 min 10 sec)
Heartbeat CPU 0 instructions: 430000004 cycles: 139289167 heartbeat IPC: 2.585 cumulative IPC: 2.587 (Simulation time: 00 hr 16 min 37 sec)
Heartbeat CPU 0 instructions: 440000003 cycles: 143132659 heartbeat IPC: 2.602 cumulative IPC: 2.587 (Simulation time: 00 hr 17 min 04 sec)
Heartbeat CPU 0 instructions: 450000003 cycles: 146998891 heartbeat IPC: 2.586 cumulative IPC: 2.587 (Simulation time: 00 hr 17 min 30 sec)
Simulation finished CPU 0 instructions: 250000001 cycles: 96622776 cumulative IPC: 2.587 (Simulation time: 00 hr 17 min 30 sec)
Simulation complete CPU 0 instructions: 250000001 cycles: 96622776 cumulative IPC: 2.587 (Simulation time: 00 hr 17 min 30 sec)

ChampSim completed all CPUs

=== Simulation ===
CPU 0 runs /home/bhavya/Downloads/603.bwaves_s-3699B.champsimtrace.xz
Region of Interest Statistics

CPU 0 cumulative IPC: 2.587 instructions: 250000001 cycles: 96622776
CPU 0 Branch Prediction Accuracy: 92.49% MPKI: 10.99 Average ROB Occupancy at Mispredict: 32.53
Branch type MPKI
BRANCH_DIRECT_JUMP: 0.0665
BRANCH_INDIRECT: 0.0625
BRANCH_CONDITIONAL: 10.8
BRANCH_DIRECT_CALL: 0
BRANCH_INDIRECT_CALL: 0
BRANCH_RETURN: 0.0734

LLC TOTAL        ACCESS:      63826 HIT:      29041 MISS:      34785
LLC LOAD         ACCESS:       5815 HIT:         20 MISS:       5795
LLC RFO          ACCESS:      28963 HIT:          0 MISS:      28963
LLC PREFETCH     ACCESS:          0 HIT:          0 MISS:          0
LLC WRITE        ACCESS:      29048 HIT:      29021 MISS:         27
LLC TRANSLATION  ACCESS:          0 HIT:          0 MISS:          0
LLC PREFETCH REQUESTED:          0 ISSUED:          0 USEFUL:          0 USELESS:          0
LLC AVERAGE MISS LATENCY: 270.2 cycles
cpu0_DTLB TOTAL        ACCESS:   39010082 HIT:   39006116 MISS:       3966
cpu0_DTLB LOAD         ACCESS:   39010082 HIT:   39006116 MISS:       3966
cpu0_DTLB RFO          ACCESS:          0 HIT:          0 MISS:          0
cpu0_DTLB PREFETCH     ACCESS:          0 HIT:          0 MISS:          0
cpu0_DTLB WRITE        ACCESS:          0 HIT:          0 MISS:          0
cpu0_DTLB TRANSLATION  ACCESS:          0 HIT:          0 MISS:          0
cpu0_DTLB PREFETCH REQUESTED:          0 ISSUED:          0 USEFUL:          0 USELESS:          0
cpu0_DTLB AVERAGE MISS LATENCY: 26.79 cycles
cpu0_ITLB TOTAL        ACCESS:     940738 HIT:     940738 MISS:          0
cpu0_ITLB LOAD         ACCESS:     940738 HIT:     940738 MISS:          0
cpu0_ITLB RFO          ACCESS:          0 HIT:          0 MISS:          0
cpu0_ITLB PREFETCH     ACCESS:          0 HIT:          0 MISS:          0
cpu0_ITLB WRITE        ACCESS:          0 HIT:          0 MISS:          0
cpu0_ITLB TRANSLATION  ACCESS:          0 HIT:          0 MISS:          0
cpu0_ITLB PREFETCH REQUESTED:          0 ISSUED:          0 USEFUL:          0 USELESS:          0
cpu0_ITLB AVERAGE MISS LATENCY: -nan cycles
cpu0_L1D TOTAL        ACCESS:   62665093 HIT:   62445890 MISS:     219203
cpu0_L1D LOAD         ACCESS:   52736019 HIT:   52720627 MISS:      15392
cpu0_L1D RFO          ACCESS:          0 HIT:          0 MISS:          0
cpu0_L1D PREFETCH     ACCESS:          0 HIT:          0 MISS:          0
cpu0_L1D WRITE        ACCESS:    9928532 HIT:    9724766 MISS:     203766
cpu0_L1D TRANSLATION  ACCESS:        542 HIT:        497 MISS:         45
cpu0_L1D PREFETCH REQUESTED:          0 ISSUED:          0 USEFUL:          0 USELESS:          0
cpu0_L1D AVERAGE MISS LATENCY: 45.8 cycles
cpu0_L1I TOTAL        ACCESS:    1085346 HIT:    1085346 MISS:          0
cpu0_L1I LOAD         ACCESS:    1085346 HIT:    1085346 MISS:          0
cpu0_L1I RFO          ACCESS:          0 HIT:          0 MISS:          0
cpu0_L1I PREFETCH     ACCESS:          0 HIT:          0 MISS:          0
cpu0_L1I WRITE        ACCESS:          0 HIT:          0 MISS:          0
cpu0_L1I TRANSLATION  ACCESS:          0 HIT:          0 MISS:          0
cpu0_L1I PREFETCH REQUESTED:          0 ISSUED:          0 USEFUL:          0 USELESS:          0
cpu0_L1I AVERAGE MISS LATENCY: -nan cycles
cpu0_L2C TOTAL        ACCESS:      64696 HIT:      29866 MISS:      34830
cpu0_L2C LOAD         ACCESS:       6178 HIT:        363 MISS:       5815
cpu0_L2C RFO          ACCESS:      29209 HIT:        246 MISS:      28963
cpu0_L2C PREFETCH     ACCESS:          0 HIT:          0 MISS:          0
cpu0_L2C WRITE        ACCESS:      29264 HIT:      29212 MISS:         52
cpu0_L2C TRANSLATION  ACCESS:         45 HIT:         45 MISS:          0
cpu0_L2C PREFETCH REQUESTED:          0 ISSUED:          0 USEFUL:          0 USELESS:          0
cpu0_L2C AVERAGE MISS LATENCY: 290.9 cycles
cpu0_STLB TOTAL        ACCESS:        583 HIT:         41 MISS:        542
cpu0_STLB LOAD         ACCESS:        583 HIT:         41 MISS:        542
cpu0_STLB RFO          ACCESS:          0 HIT:          0 MISS:          0
cpu0_STLB PREFETCH     ACCESS:          0 HIT:          0 MISS:          0
cpu0_STLB WRITE        ACCESS:          0 HIT:          0 MISS:          0
cpu0_STLB TRANSLATION  ACCESS:          0 HIT:          0 MISS:          0
cpu0_STLB PREFETCH REQUESTED:          0 ISSUED:          0 USEFUL:          0 USELESS:          0
cpu0_STLB AVERAGE MISS LATENCY: 207.1 cycles

DRAM Statistics

Channel 0 RQ ROW_BUFFER_HIT:      12052
  ROW_BUFFER_MISS:      22706
 AVG DBUS CONGESTED CYCLE: 3.859
WQ ROW_BUFFER_HIT: Channel 0 
  ROW_BUFFER_MISS:      10546
  FULL:      18437
]0;bhavya@intellab16-OptiPlex-5090: ~/ChampSim[01;32mbhavya@intellab16-OptiPlex-5090[00m:[01;34m~/ChampSim[00m$ [K]0;bhavya@intellab16-OptiPlex-5090: ~/ChampSim[01;32mbhavya@intellab16-OptiPlex-5090[00m:[01;34m~/ChampSim[00m$ [K]0;bhavya@intellab16-OptiPlex-5090: ~/ChampSim[01;32mbhavya@intellab16-OptiPlex-5090[00m:[01;34m~/ChampSim[00m$ [K]0;bhavya@intellab16-OptiPlex-5090: ~/ChampSim[01;32mbhavya@intellab16-OptiPlex-5090[00m:[01;34m~/ChampSim[00m$ [K]0;bhavya@intellab16-OptiPlex-5090: ~/ChampSim[01;32mbhavya@intellab16-OptiPlex-5090[00m:[01;34m~/ChampSim[00m$ [K]0;bhavya@intellab16-OptiPlex-5090: ~/ChampSim[01;32mbhavya@intellab16-OptiPlex-5090[00m:[01;34m~/ChampSim[00m$ [K]0;bhavya@intellab16-OptiPlex-5090: ~/ChampSim[01;32mbhavya@intellab16-OptiPlex-5090[00m:[01;34m~/ChampSim[00m$ [K]0;bhavya@intellab16-OptiPlex-5090: ~/ChampSim[01;32mbhavya@intellab16-OptiPlex-5090[00m:[01;34m~/ChampSim[00m$ [K]0;bhavya@intellab16-OptiPlex-5090: ~/ChampSim[01;32mbhavya@intellab16-OptiPlex-5090[00m:[01;34m~/ChampSim[00m$ [K]0;bhavya@intellab16-OptiPlex-5090: ~/ChampSim[01;32mbhavya@intellab16-OptiPlex-5090[00m:[01;34m~/ChampSim[00m$ [K]0;bhavya@intellab16-OptiPlex-5090: ~/ChampSim[01;32mbhavya@intellab16-OptiPlex-5090[00m:[01;34m~/ChampSim[00m$ exit
exit

Script done on 2023-09-23 14:33:35+05:30 [COMMAND_EXIT_CODE="0"]
