Script started on 2023-09-23 12:52:02+05:30 [TERM="xterm-256color" TTY="/dev/pts/0" COLUMNS="188" LINES="13"]
To run a command as administrator (user "root"), use "sudo <command>".
See "man sudo_root" for details.

]0;bhavya@intellab16-OptiPlex-5090: ~/ChampSim[01;32mbhavya@intellab16-OptiPlex-5090[00m:[01;34m~/ChampSim[00m$ exitbin/champsim --warmup_instructions 200000000 --simulation_instructions 250000000 ~/Downloads/641.leela_s-862B.champsimtrace.xz[K[K[K[K[K[K[K[K[K[K[K[K[K[K[K[K[K[K[K[K[K[K[K[K[K[K[K[K[K[K[K[K[K638.imagick_s-10316B.champsimtrace.xz
WARNING: physical memory size is smaller than virtual memory size.
WARNING: option --warmup_instructions is deprecated. Use --warmup-instructions instead.
WARNING: option --simulation_instructions is deprecated. Use --simulation-instructions instead.

*** ChampSim Multicore Out-of-Order Simulator ***
Warmup Instructions: 200000000
Simulation Instructions: 250000000
Number of CPUs: 1
Page size: 4096

Off-chip DRAM Size: 4 GiB Channels: 1 Width: 64-bit Data Race: 3200 MT/s
Heartbeat CPU 0 instructions: 10000001 cycles: 2500043 heartbeat IPC: 4 cumulative IPC: 4 (Simulation time: 00 hr 00 min 17 sec)
Heartbeat CPU 0 instructions: 20000001 cycles: 5000043 heartbeat IPC: 4 cumulative IPC: 4 (Simulation time: 00 hr 00 min 35 sec)
Heartbeat CPU 0 instructions: 30000001 cycles: 7500043 heartbeat IPC: 4 cumulative IPC: 4 (Simulation time: 00 hr 00 min 53 sec)
Heartbeat CPU 0 instructions: 40000001 cycles: 10000043 heartbeat IPC: 4 cumulative IPC: 4 (Simulation time: 00 hr 01 min 11 sec)
Heartbeat CPU 0 instructions: 50000001 cycles: 12500043 heartbeat IPC: 4 cumulative IPC: 4 (Simulation time: 00 hr 01 min 29 sec)
Heartbeat CPU 0 instructions: 60000001 cycles: 15000043 heartbeat IPC: 4 cumulative IPC: 4 (Simulation time: 00 hr 01 min 47 sec)
Heartbeat CPU 0 instructions: 70000001 cycles: 17500043 heartbeat IPC: 4 cumulative IPC: 4 (Simulation time: 00 hr 02 min 05 sec)
Heartbeat CPU 0 instructions: 80000001 cycles: 20000043 heartbeat IPC: 4 cumulative IPC: 4 (Simulation time: 00 hr 02 min 24 sec)
Heartbeat CPU 0 instructions: 90000001 cycles: 22500043 heartbeat IPC: 4 cumulative IPC: 4 (Simulation time: 00 hr 02 min 42 sec)
Heartbeat CPU 0 instructions: 100000001 cycles: 25000043 heartbeat IPC: 4 cumulative IPC: 4 (Simulation time: 00 hr 03 min 00 sec)
Heartbeat CPU 0 instructions: 110000001 cycles: 27500043 heartbeat IPC: 4 cumulative IPC: 4 (Simulation time: 00 hr 03 min 17 sec)
Heartbeat CPU 0 instructions: 120000001 cycles: 30000043 heartbeat IPC: 4 cumulative IPC: 4 (Simulation time: 00 hr 03 min 35 sec)
Heartbeat CPU 0 instructions: 130000001 cycles: 32500043 heartbeat IPC: 4 cumulative IPC: 4 (Simulation time: 00 hr 03 min 53 sec)
Heartbeat CPU 0 instructions: 140000001 cycles: 35000043 heartbeat IPC: 4 cumulative IPC: 4 (Simulation time: 00 hr 04 min 11 sec)
Heartbeat CPU 0 instructions: 150000001 cycles: 37500043 heartbeat IPC: 4 cumulative IPC: 4 (Simulation time: 00 hr 04 min 29 sec)
Heartbeat CPU 0 instructions: 160000001 cycles: 40000043 heartbeat IPC: 4 cumulative IPC: 4 (Simulation time: 00 hr 04 min 48 sec)
Heartbeat CPU 0 instructions: 170000001 cycles: 42500043 heartbeat IPC: 4 cumulative IPC: 4 (Simulation time: 00 hr 05 min 06 sec)
Heartbeat CPU 0 instructions: 180000001 cycles: 45000043 heartbeat IPC: 4 cumulative IPC: 4 (Simulation time: 00 hr 05 min 24 sec)
Heartbeat CPU 0 instructions: 190000001 cycles: 47500043 heartbeat IPC: 4 cumulative IPC: 4 (Simulation time: 00 hr 05 min 42 sec)
Heartbeat CPU 0 instructions: 200000001 cycles: 50000043 heartbeat IPC: 4 cumulative IPC: 4 (Simulation time: 00 hr 06 min 00 sec)
Warmup finished CPU 0 instructions: 200000001 cycles: 50000044 cumulative IPC: 4 (Simulation time: 00 hr 06 min 00 sec)
Warmup complete CPU 0 instructions: 200000001 cycles: 50000044 cumulative IPC: 4 (Simulation time: 00 hr 06 min 00 sec)
Heartbeat CPU 0 instructions: 210000004 cycles: 52582080 heartbeat IPC: 3.873 cumulative IPC: 3.873 (Simulation time: 00 hr 06 min 21 sec)
Heartbeat CPU 0 instructions: 220000004 cycles: 55164136 heartbeat IPC: 3.873 cumulative IPC: 3.873 (Simulation time: 00 hr 06 min 41 sec)
Heartbeat CPU 0 instructions: 230000003 cycles: 57746343 heartbeat IPC: 3.873 cumulative IPC: 3.873 (Simulation time: 00 hr 07 min 02 sec)
Heartbeat CPU 0 instructions: 240000003 cycles: 60328112 heartbeat IPC: 3.873 cumulative IPC: 3.873 (Simulation time: 00 hr 07 min 22 sec)
Heartbeat CPU 0 instructions: 250000002 cycles: 62910071 heartbeat IPC: 3.873 cumulative IPC: 3.873 (Simulation time: 00 hr 07 min 42 sec)
Heartbeat CPU 0 instructions: 260000000 cycles: 65492087 heartbeat IPC: 3.873 cumulative IPC: 3.873 (Simulation time: 00 hr 08 min 02 sec)
Heartbeat CPU 0 instructions: 270000000 cycles: 68074148 heartbeat IPC: 3.873 cumulative IPC: 3.873 (Simulation time: 00 hr 08 min 23 sec)
Heartbeat CPU 0 instructions: 280000001 cycles: 70655786 heartbeat IPC: 3.874 cumulative IPC: 3.873 (Simulation time: 00 hr 08 min 43 sec)
Heartbeat CPU 0 instructions: 290000004 cycles: 73237815 heartbeat IPC: 3.873 cumulative IPC: 3.873 (Simulation time: 00 hr 09 min 03 sec)
Heartbeat CPU 0 instructions: 300000000 cycles: 75819852 heartbeat IPC: 3.873 cumulative IPC: 3.873 (Simulation time: 00 hr 09 min 23 sec)
Heartbeat CPU 0 instructions: 310000003 cycles: 78401740 heartbeat IPC: 3.873 cumulative IPC: 3.873 (Simulation time: 00 hr 09 min 43 sec)
Heartbeat CPU 0 instructions: 320000002 cycles: 80983553 heartbeat IPC: 3.873 cumulative IPC: 3.873 (Simulation time: 00 hr 10 min 03 sec)
Heartbeat CPU 0 instructions: 330000000 cycles: 83565915 heartbeat IPC: 3.872 cumulative IPC: 3.873 (Simulation time: 00 hr 10 min 24 sec)
Heartbeat CPU 0 instructions: 340000000 cycles: 86147810 heartbeat IPC: 3.873 cumulative IPC: 3.873 (Simulation time: 00 hr 10 min 44 sec)
Heartbeat CPU 0 instructions: 350000001 cycles: 88729857 heartbeat IPC: 3.873 cumulative IPC: 3.873 (Simulation time: 00 hr 11 min 05 sec)
Heartbeat CPU 0 instructions: 360000003 cycles: 91311885 heartbeat IPC: 3.873 cumulative IPC: 3.873 (Simulation time: 00 hr 11 min 26 sec)
Heartbeat CPU 0 instructions: 370000002 cycles: 93893810 heartbeat IPC: 3.873 cumulative IPC: 3.873 (Simulation time: 00 hr 11 min 46 sec)
Heartbeat CPU 0 instructions: 380000004 cycles: 96475628 heartbeat IPC: 3.873 cumulative IPC: 3.873 (Simulation time: 00 hr 12 min 07 sec)
Heartbeat CPU 0 instructions: 390000000 cycles: 99057607 heartbeat IPC: 3.873 cumulative IPC: 3.873 (Simulation time: 00 hr 12 min 27 sec)
Heartbeat CPU 0 instructions: 400000000 cycles: 101639700 heartbeat IPC: 3.873 cumulative IPC: 3.873 (Simulation time: 00 hr 12 min 47 sec)
Heartbeat CPU 0 instructions: 410000003 cycles: 104221740 heartbeat IPC: 3.873 cumulative IPC: 3.873 (Simulation time: 00 hr 13 min 08 sec)
Heartbeat CPU 0 instructions: 420000002 cycles: 106803563 heartbeat IPC: 3.873 cumulative IPC: 3.873 (Simulation time: 00 hr 13 min 28 sec)
Heartbeat CPU 0 instructions: 430000001 cycles: 109385791 heartbeat IPC: 3.873 cumulative IPC: 3.873 (Simulation time: 00 hr 13 min 48 sec)
Heartbeat CPU 0 instructions: 440000002 cycles: 111968056 heartbeat IPC: 3.873 cumulative IPC: 3.873 (Simulation time: 00 hr 14 min 08 sec)
Heartbeat CPU 0 instructions: 450000000 cycles: 114550205 heartbeat IPC: 3.873 cumulative IPC: 3.873 (Simulation time: 00 hr 14 min 28 sec)
Simulation finished CPU 0 instructions: 250000004 cycles: 64550163 cumulative IPC: 3.873 (Simulation time: 00 hr 14 min 28 sec)
Simulation complete CPU 0 instructions: 250000004 cycles: 64550163 cumulative IPC: 3.873 (Simulation time: 00 hr 14 min 28 sec)

ChampSim completed all CPUs

=== Simulation ===
CPU 0 runs /home/bhavya/Downloads/638.imagick_s-10316B.champsimtrace.xz
Region of Interest Statistics

CPU 0 cumulative IPC: 3.873 instructions: 250000004 cycles: 64550163
CPU 0 Branch Prediction Accuracy: 99.7% MPKI: 0.313 Average ROB Occupancy at Mispredict: 348.4
Branch type MPKI
BRANCH_DIRECT_JUMP: 4e-06
BRANCH_INDIRECT: 0
BRANCH_CONDITIONAL: 0.313
BRANCH_DIRECT_CALL: 0
BRANCH_INDIRECT_CALL: 0
BRANCH_RETURN: 0

LLC TOTAL        ACCESS:       9863 HIT:         99 MISS:       9764
LLC LOAD         ACCESS:       9677 HIT:          0 MISS:       9677
LLC RFO          ACCESS:         87 HIT:          0 MISS:         87
LLC PREFETCH     ACCESS:          0 HIT:          0 MISS:          0
LLC WRITE        ACCESS:         97 HIT:         97 MISS:          0
LLC TRANSLATION  ACCESS:          2 HIT:          2 MISS:          0
LLC PREFETCH REQUESTED:          0 ISSUED:          0 USEFUL:          0 USELESS:          0
LLC AVERAGE MISS LATENCY: 136.4 cycles
cpu0_DTLB TOTAL        ACCESS:   38944067 HIT:   38346961 MISS:     597106
cpu0_DTLB LOAD         ACCESS:   38944067 HIT:   38346961 MISS:     597106
cpu0_DTLB RFO          ACCESS:          0 HIT:          0 MISS:          0
cpu0_DTLB PREFETCH     ACCESS:          0 HIT:          0 MISS:          0
cpu0_DTLB WRITE        ACCESS:          0 HIT:          0 MISS:          0
cpu0_DTLB TRANSLATION  ACCESS:          0 HIT:          0 MISS:          0
cpu0_DTLB PREFETCH REQUESTED:          0 ISSUED:          0 USEFUL:          0 USELESS:          0
cpu0_DTLB AVERAGE MISS LATENCY: 0.1302 cycles
cpu0_ITLB TOTAL        ACCESS:          0 HIT:          0 MISS:          0
cpu0_ITLB LOAD         ACCESS:          0 HIT:          0 MISS:          0
cpu0_ITLB RFO          ACCESS:          0 HIT:          0 MISS:          0
cpu0_ITLB PREFETCH     ACCESS:          0 HIT:          0 MISS:          0
cpu0_ITLB WRITE        ACCESS:          0 HIT:          0 MISS:          0
cpu0_ITLB TRANSLATION  ACCESS:          0 HIT:          0 MISS:          0
cpu0_ITLB PREFETCH REQUESTED:          0 ISSUED:          0 USEFUL:          0 USELESS:          0
cpu0_ITLB AVERAGE MISS LATENCY: -nan cycles
cpu0_L1D TOTAL        ACCESS:   42902536 HIT:   31824668 MISS:   11077868
cpu0_L1D LOAD         ACCESS:   42890332 HIT:   31815701 MISS:   11074631
cpu0_L1D RFO          ACCESS:          0 HIT:          0 MISS:          0
cpu0_L1D PREFETCH     ACCESS:          0 HIT:          0 MISS:          0
cpu0_L1D WRITE        ACCESS:      12050 HIT:       8967 MISS:       3083
cpu0_L1D TRANSLATION  ACCESS:        154 HIT:          0 MISS:        154
cpu0_L1D PREFETCH REQUESTED:          0 ISSUED:          0 USEFUL:          0 USELESS:          0
cpu0_L1D AVERAGE MISS LATENCY: 0.5569 cycles
cpu0_L1I TOTAL        ACCESS:          0 HIT:          0 MISS:          0
cpu0_L1I LOAD         ACCESS:          0 HIT:          0 MISS:          0
cpu0_L1I RFO          ACCESS:          0 HIT:          0 MISS:          0
cpu0_L1I PREFETCH     ACCESS:          0 HIT:          0 MISS:          0
cpu0_L1I WRITE        ACCESS:          0 HIT:          0 MISS:          0
cpu0_L1I TRANSLATION  ACCESS:          0 HIT:          0 MISS:          0
cpu0_L1I PREFETCH REQUESTED:          0 ISSUED:          0 USEFUL:          0 USELESS:          0
cpu0_L1I AVERAGE MISS LATENCY: -nan cycles
cpu0_L2C TOTAL        ACCESS:    2228712 HIT:    2218946 MISS:       9766
cpu0_L2C LOAD         ACCESS:    2223505 HIT:    2213828 MISS:       9677
cpu0_L2C RFO          ACCESS:       1481 HIT:       1394 MISS:         87
cpu0_L2C PREFETCH     ACCESS:          0 HIT:          0 MISS:          0
cpu0_L2C WRITE        ACCESS:       3572 HIT:       3572 MISS:          0
cpu0_L2C TRANSLATION  ACCESS:        154 HIT:        152 MISS:          2
cpu0_L2C PREFETCH REQUESTED:          0 ISSUED:          0 USEFUL:          0 USELESS:          0
cpu0_L2C AVERAGE MISS LATENCY: 157.3 cycles
cpu0_STLB TOTAL        ACCESS:     116112 HIT:     115958 MISS:        154
cpu0_STLB LOAD         ACCESS:     116112 HIT:     115958 MISS:        154
cpu0_STLB RFO          ACCESS:          0 HIT:          0 MISS:          0
cpu0_STLB PREFETCH     ACCESS:          0 HIT:          0 MISS:          0
cpu0_STLB WRITE        ACCESS:          0 HIT:          0 MISS:          0
cpu0_STLB TRANSLATION  ACCESS:          0 HIT:          0 MISS:          0
cpu0_STLB PREFETCH REQUESTED:          0 ISSUED:          0 USEFUL:          0 USELESS:          0
cpu0_STLB AVERAGE MISS LATENCY: 217.3 cycles

DRAM Statistics

Channel 0 RQ ROW_BUFFER_HIT:       2702
  ROW_BUFFER_MISS:       7062
 AVG DBUS CONGESTED CYCLE: -
WQ ROW_BUFFER_HIT: Channel 0 
  ROW_BUFFER_MISS:          0
  FULL:          0
]0;bhavya@intellab16-OptiPlex-5090: ~/ChampSim[01;32mbhavya@intellab16-OptiPlex-5090[00m:[01;34m~/ChampSim[00m$ [K]0;bhavya@intellab16-OptiPlex-5090: ~/ChampSim[01;32mbhavya@intellab16-OptiPlex-5090[00m:[01;34m~/ChampSim[00m$ [K]0;bhavya@intellab16-OptiPlex-5090: ~/ChampSim[01;32mbhavya@intellab16-OptiPlex-5090[00m:[01;34m~/ChampSim[00m$ exit
exit

Script done on 2023-09-23 13:08:51+05:30 [COMMAND_EXIT_CODE="0"]
