Script started on 2023-09-23 15:23:46+05:30 [TERM="xterm-256color" TTY="/dev/pts/5" COLUMNS="173" LINES="35"]
To run a command as administrator (user "root"), use "sudo <command>".
See "man sudo_root" for details.

]0;bhavya@intellab16-OptiPlex-5090: ~/ChampSim[01;32mbhavya@intellab16-OptiPlex-5090[00m:[01;34m~/ChampSim[00m$ exitscript percptron3.txteptron2.txtclear[Kscript gshare3.txtperceptron1.txtmake[K./config.sh champsim_config.json exit[Kbin/champsim --warmup_instructions 200000000 --simulation_instructions 250000000 ~/Downloads/603.bwaves_s-3699B.champsimtrace.xz[C[C[C[C[C[C[C[C[C[C[C[C[C[C[C[C[C[C[C[C[C[C[C[C[C[C[C[C[C[C[C[C[C[C[C[C[C[C[C[C[C[C[C[Cexit[Kbin/champsim --warmup_instructions 200000000 --simulation_instructions 250000000 ~/Downloads/638.imagick_s-10316B.champsimtrace.xz[A]0;bhavya@intellab16-OptiPlex-5090: ~/ChampSim[01;32mbhavya@intellab16-OptiPlex-5090[00m:[01;34m~/ChampSim[00m$ exit[K
[K[A[C[C[C[C[C[C[C[C[C[C[C[C[C[C[C[C[C[C[C[C[C[C[C[C[C[C[C[C[C[C[C[C[C[C[C[C[C[C[C[C[C[C[C[C[C[C[C[Cbin/champsim --warmup_instructions 200000000 --simulation_instructions 250000000 ~/Downloads/641.leela_s-862B.champsimtrace.xz
WARNING: physical memory size is smaller than virtual memory size.
WARNING: option --warmup_instructions is deprecated. Use --warmup-instructions instead.
WARNING: option --simulation_instructions is deprecated. Use --simulation-instructions instead.

*** ChampSim Multicore Out-of-Order Simulator ***
Warmup Instructions: 200000000
Simulation Instructions: 250000000
Number of CPUs: 1
Page size: 4096

Off-chip DRAM Size: 4 GiB Channels: 1 Width: 64-bit Data Race: 3200 MT/s
Heartbeat CPU 0 instructions: 10000001 cycles: 2508410 heartbeat IPC: 3.987 cumulative IPC: 3.987 (Simulation time: 00 hr 00 min 24 sec)
Heartbeat CPU 0 instructions: 20000000 cycles: 5017470 heartbeat IPC: 3.986 cumulative IPC: 3.986 (Simulation time: 00 hr 00 min 48 sec)
Heartbeat CPU 0 instructions: 30000003 cycles: 7526527 heartbeat IPC: 3.986 cumulative IPC: 3.986 (Simulation time: 00 hr 01 min 13 sec)
Heartbeat CPU 0 instructions: 40000003 cycles: 10034899 heartbeat IPC: 3.987 cumulative IPC: 3.986 (Simulation time: 00 hr 01 min 37 sec)
Heartbeat CPU 0 instructions: 50000001 cycles: 12543281 heartbeat IPC: 3.987 cumulative IPC: 3.986 (Simulation time: 00 hr 02 min 01 sec)
Heartbeat CPU 0 instructions: 60000000 cycles: 15053057 heartbeat IPC: 3.984 cumulative IPC: 3.986 (Simulation time: 00 hr 02 min 25 sec)
Heartbeat CPU 0 instructions: 70000002 cycles: 17562126 heartbeat IPC: 3.986 cumulative IPC: 3.986 (Simulation time: 00 hr 02 min 50 sec)
Heartbeat CPU 0 instructions: 80000003 cycles: 20071184 heartbeat IPC: 3.986 cumulative IPC: 3.986 (Simulation time: 00 hr 03 min 14 sec)
Heartbeat CPU 0 instructions: 90000003 cycles: 22579552 heartbeat IPC: 3.987 cumulative IPC: 3.986 (Simulation time: 00 hr 03 min 38 sec)
Heartbeat CPU 0 instructions: 100000001 cycles: 25087920 heartbeat IPC: 3.987 cumulative IPC: 3.986 (Simulation time: 00 hr 04 min 02 sec)
Heartbeat CPU 0 instructions: 110000002 cycles: 27596994 heartbeat IPC: 3.986 cumulative IPC: 3.986 (Simulation time: 00 hr 04 min 25 sec)
Heartbeat CPU 0 instructions: 120000001 cycles: 30105368 heartbeat IPC: 3.987 cumulative IPC: 3.986 (Simulation time: 00 hr 04 min 50 sec)
Heartbeat CPU 0 instructions: 130000003 cycles: 32614443 heartbeat IPC: 3.986 cumulative IPC: 3.986 (Simulation time: 00 hr 05 min 14 sec)
Heartbeat CPU 0 instructions: 140000000 cycles: 35123518 heartbeat IPC: 3.986 cumulative IPC: 3.986 (Simulation time: 00 hr 05 min 37 sec)
Heartbeat CPU 0 instructions: 150000001 cycles: 37632575 heartbeat IPC: 3.986 cumulative IPC: 3.986 (Simulation time: 00 hr 06 min 02 sec)
Heartbeat CPU 0 instructions: 160000000 cycles: 40140936 heartbeat IPC: 3.987 cumulative IPC: 3.986 (Simulation time: 00 hr 06 min 25 sec)
Heartbeat CPU 0 instructions: 170000001 cycles: 42650011 heartbeat IPC: 3.986 cumulative IPC: 3.986 (Simulation time: 00 hr 06 min 49 sec)
Heartbeat CPU 0 instructions: 180000002 cycles: 45159783 heartbeat IPC: 3.984 cumulative IPC: 3.986 (Simulation time: 00 hr 07 min 13 sec)
Heartbeat CPU 0 instructions: 190000002 cycles: 47668858 heartbeat IPC: 3.986 cumulative IPC: 3.986 (Simulation time: 00 hr 07 min 37 sec)
Heartbeat CPU 0 instructions: 200000003 cycles: 50177223 heartbeat IPC: 3.987 cumulative IPC: 3.986 (Simulation time: 00 hr 08 min 00 sec)
Warmup finished CPU 0 instructions: 200000003 cycles: 50177224 cumulative IPC: 3.986 (Simulation time: 00 hr 08 min 00 sec)
Warmup complete CPU 0 instructions: 200000003 cycles: 50177224 cumulative IPC: 3.986 (Simulation time: 00 hr 08 min 00 sec)
Heartbeat CPU 0 instructions: 210000001 cycles: 55205353 heartbeat IPC: 1.989 cumulative IPC: 1.989 (Simulation time: 00 hr 08 min 35 sec)
Heartbeat CPU 0 instructions: 220000001 cycles: 60194293 heartbeat IPC: 2.004 cumulative IPC: 1.997 (Simulation time: 00 hr 09 min 10 sec)
Heartbeat CPU 0 instructions: 230000000 cycles: 65195428 heartbeat IPC: 2 cumulative IPC: 1.998 (Simulation time: 00 hr 09 min 44 sec)
Heartbeat CPU 0 instructions: 240000000 cycles: 70166217 heartbeat IPC: 2.012 cumulative IPC: 2.001 (Simulation time: 00 hr 10 min 18 sec)
Heartbeat CPU 0 instructions: 250000001 cycles: 75138713 heartbeat IPC: 2.011 cumulative IPC: 2.003 (Simulation time: 00 hr 10 min 54 sec)
Heartbeat CPU 0 instructions: 260000000 cycles: 80125799 heartbeat IPC: 2.005 cumulative IPC: 2.003 (Simulation time: 00 hr 11 min 29 sec)
Heartbeat CPU 0 instructions: 270000000 cycles: 85123848 heartbeat IPC: 2.001 cumulative IPC: 2.003 (Simulation time: 00 hr 12 min 04 sec)
Heartbeat CPU 0 instructions: 280000001 cycles: 90104265 heartbeat IPC: 2.008 cumulative IPC: 2.004 (Simulation time: 00 hr 12 min 38 sec)
Heartbeat CPU 0 instructions: 290000001 cycles: 95119792 heartbeat IPC: 1.994 cumulative IPC: 2.003 (Simulation time: 00 hr 13 min 13 sec)
Heartbeat CPU 0 instructions: 300000003 cycles: 100120024 heartbeat IPC: 2 cumulative IPC: 2.002 (Simulation time: 00 hr 13 min 47 sec)
Heartbeat CPU 0 instructions: 310000002 cycles: 105083581 heartbeat IPC: 2.015 cumulative IPC: 2.003 (Simulation time: 00 hr 14 min 22 sec)
Heartbeat CPU 0 instructions: 320000000 cycles: 110094770 heartbeat IPC: 1.996 cumulative IPC: 2.003 (Simulation time: 00 hr 14 min 57 sec)
Heartbeat CPU 0 instructions: 330000002 cycles: 115073923 heartbeat IPC: 2.008 cumulative IPC: 2.003 (Simulation time: 00 hr 15 min 31 sec)
Heartbeat CPU 0 instructions: 340000002 cycles: 120078878 heartbeat IPC: 1.998 cumulative IPC: 2.003 (Simulation time: 00 hr 16 min 07 sec)
Heartbeat CPU 0 instructions: 350000004 cycles: 125063104 heartbeat IPC: 2.006 cumulative IPC: 2.003 (Simulation time: 00 hr 16 min 42 sec)
Heartbeat CPU 0 instructions: 360000001 cycles: 130069928 heartbeat IPC: 1.997 cumulative IPC: 2.003 (Simulation time: 00 hr 17 min 16 sec)
Heartbeat CPU 0 instructions: 370000004 cycles: 135077352 heartbeat IPC: 1.997 cumulative IPC: 2.002 (Simulation time: 00 hr 17 min 51 sec)
Heartbeat CPU 0 instructions: 380000001 cycles: 140097590 heartbeat IPC: 1.992 cumulative IPC: 2.002 (Simulation time: 00 hr 18 min 26 sec)
Heartbeat CPU 0 instructions: 390000003 cycles: 145096926 heartbeat IPC: 2 cumulative IPC: 2.002 (Simulation time: 00 hr 19 min 00 sec)
Heartbeat CPU 0 instructions: 400000004 cycles: 150080158 heartbeat IPC: 2.007 cumulative IPC: 2.002 (Simulation time: 00 hr 19 min 35 sec)
Heartbeat CPU 0 instructions: 410000000 cycles: 155067187 heartbeat IPC: 2.005 cumulative IPC: 2.002 (Simulation time: 00 hr 20 min 09 sec)
Heartbeat CPU 0 instructions: 420000000 cycles: 160110303 heartbeat IPC: 1.983 cumulative IPC: 2.001 (Simulation time: 00 hr 20 min 44 sec)
Heartbeat CPU 0 instructions: 430000003 cycles: 165086330 heartbeat IPC: 2.01 cumulative IPC: 2.002 (Simulation time: 00 hr 21 min 19 sec)
Heartbeat CPU 0 instructions: 440000000 cycles: 170070890 heartbeat IPC: 2.006 cumulative IPC: 2.002 (Simulation time: 00 hr 21 min 53 sec)
Heartbeat CPU 0 instructions: 450000002 cycles: 175069676 heartbeat IPC: 2 cumulative IPC: 2.002 (Simulation time: 00 hr 22 min 28 sec)
Simulation finished CPU 0 instructions: 250000001 cycles: 124892454 cumulative IPC: 2.002 (Simulation time: 00 hr 22 min 28 sec)
Simulation complete CPU 0 instructions: 250000001 cycles: 124892454 cumulative IPC: 2.002 (Simulation time: 00 hr 22 min 28 sec)

ChampSim completed all CPUs

=== Simulation ===
CPU 0 runs /home/bhavya/Downloads/641.leela_s-862B.champsimtrace.xz
Region of Interest Statistics

CPU 0 cumulative IPC: 2.002 instructions: 250000001 cycles: 124892454
CPU 0 Branch Prediction Accuracy: 90.36% MPKI: 15.84 Average ROB Occupancy at Mispredict: 23.04
Branch type MPKI
BRANCH_DIRECT_JUMP: 0.177
BRANCH_INDIRECT: 0.00044
BRANCH_CONDITIONAL: 15.3
BRANCH_DIRECT_CALL: 0.339
BRANCH_INDIRECT_CALL: 0
BRANCH_RETURN: 0.0428

LLC TOTAL        ACCESS:       5367 HIT:       3665 MISS:       1702
LLC LOAD         ACCESS:       3167 HIT:       2708 MISS:        459
LLC RFO          ACCESS:       1212 HIT:          3 MISS:       1209
LLC PREFETCH     ACCESS:          0 HIT:          0 MISS:          0
LLC WRITE        ACCESS:        912 HIT:        912 MISS:          0
LLC TRANSLATION  ACCESS:         76 HIT:         42 MISS:         34
LLC PREFETCH REQUESTED:          0 ISSUED:          0 USEFUL:          0 USELESS:          0
LLC AVERAGE MISS LATENCY: 109.8 cycles
cpu0_DTLB TOTAL        ACCESS:   58143240 HIT:   57989096 MISS:     154144
cpu0_DTLB LOAD         ACCESS:   58143240 HIT:   57989096 MISS:     154144
cpu0_DTLB RFO          ACCESS:          0 HIT:          0 MISS:          0
cpu0_DTLB PREFETCH     ACCESS:          0 HIT:          0 MISS:          0
cpu0_DTLB WRITE        ACCESS:          0 HIT:          0 MISS:          0
cpu0_DTLB TRANSLATION  ACCESS:          0 HIT:          0 MISS:          0
cpu0_DTLB PREFETCH REQUESTED:          0 ISSUED:          0 USEFUL:          0 USELESS:          0
cpu0_DTLB AVERAGE MISS LATENCY: 5.385 cycles
cpu0_ITLB TOTAL        ACCESS:   11235944 HIT:   11235944 MISS:          0
cpu0_ITLB LOAD         ACCESS:   11235944 HIT:   11235944 MISS:          0
cpu0_ITLB RFO          ACCESS:          0 HIT:          0 MISS:          0
cpu0_ITLB PREFETCH     ACCESS:          0 HIT:          0 MISS:          0
cpu0_ITLB WRITE        ACCESS:          0 HIT:          0 MISS:          0
cpu0_ITLB TRANSLATION  ACCESS:          0 HIT:          0 MISS:          0
cpu0_ITLB PREFETCH REQUESTED:          0 ISSUED:          0 USEFUL:          0 USELESS:          0
cpu0_ITLB AVERAGE MISS LATENCY: -nan cycles
cpu0_L1D TOTAL        ACCESS:   76341375 HIT:   75362762 MISS:     978613
cpu0_L1D LOAD         ACCESS:   47324385 HIT:   46606320 MISS:     718065
cpu0_L1D RFO          ACCESS:          0 HIT:          0 MISS:          0
cpu0_L1D PREFETCH     ACCESS:          0 HIT:          0 MISS:          0
cpu0_L1D WRITE        ACCESS:   29016815 HIT:   28756438 MISS:     260377
cpu0_L1D TRANSLATION  ACCESS:        175 HIT:          4 MISS:        171
cpu0_L1D PREFETCH REQUESTED:          0 ISSUED:          0 USEFUL:          0 USELESS:          0
cpu0_L1D AVERAGE MISS LATENCY: 4.305 cycles
cpu0_L1I TOTAL        ACCESS:   12667161 HIT:   12642660 MISS:      24501
cpu0_L1I LOAD         ACCESS:   12667161 HIT:   12642660 MISS:      24501
cpu0_L1I RFO          ACCESS:          0 HIT:          0 MISS:          0
cpu0_L1I PREFETCH     ACCESS:          0 HIT:          0 MISS:          0
cpu0_L1I WRITE        ACCESS:          0 HIT:          0 MISS:          0
cpu0_L1I TRANSLATION  ACCESS:          0 HIT:          0 MISS:          0
cpu0_L1I PREFETCH REQUESTED:          0 ISSUED:          0 USEFUL:          0 USELESS:          0
cpu0_L1I AVERAGE MISS LATENCY: 5.318 cycles
cpu0_L2C TOTAL        ACCESS:     602176 HIT:     597720 MISS:       4456
cpu0_L2C LOAD         ACCESS:     451405 HIT:     448238 MISS:       3167
cpu0_L2C RFO          ACCESS:      52657 HIT:      51445 MISS:       1212
cpu0_L2C PREFETCH     ACCESS:          0 HIT:          0 MISS:          0
cpu0_L2C WRITE        ACCESS:      97943 HIT:      97942 MISS:          1
cpu0_L2C TRANSLATION  ACCESS:        171 HIT:         95 MISS:         76
cpu0_L2C PREFETCH REQUESTED:          0 ISSUED:          0 USEFUL:          0 USELESS:          0
cpu0_L2C AVERAGE MISS LATENCY: 62.31 cycles
cpu0_STLB TOTAL        ACCESS:     111630 HIT:     111455 MISS:        175
cpu0_STLB LOAD         ACCESS:     111630 HIT:     111455 MISS:        175
cpu0_STLB RFO          ACCESS:          0 HIT:          0 MISS:          0
cpu0_STLB PREFETCH     ACCESS:          0 HIT:          0 MISS:          0
cpu0_STLB WRITE        ACCESS:          0 HIT:          0 MISS:          0
cpu0_STLB TRANSLATION  ACCESS:          0 HIT:          0 MISS:          0
cpu0_STLB PREFETCH REQUESTED:          0 ISSUED:          0 USEFUL:          0 USELESS:          0
cpu0_STLB AVERAGE MISS LATENCY: 258.1 cycles

DRAM Statistics

Channel 0 RQ ROW_BUFFER_HIT:       1034
  ROW_BUFFER_MISS:        668
 AVG DBUS CONGESTED CYCLE: 3.832
WQ ROW_BUFFER_HIT: Channel 0 
  ROW_BUFFER_MISS:          0
  FULL:          0
]0;bhavya@intellab16-OptiPlex-5090: ~/ChampSim[01;32mbhavya@intellab16-OptiPlex-5090[00m:[01;34m~/ChampSim[00m$ exit
exit

Script done on 2023-09-23 15:46:27+05:30 [COMMAND_EXIT_CODE="0"]
