Script started on 2023-09-26 12:06:02+05:30 [TERM="xterm-256color" TTY="/dev/pts/0" COLUMNS="188" LINES="18"]
To run a command as administrator (user "root"), use "sudo <command>".
See "man sudo_root" for details.

]0;bhavya@intellab16-OptiPlex-5090: ~/ChampSim[01;32mbhavya@intellab16-OptiPlex-5090[00m:[01;34m~/ChampSim[00m$ scp -r guest@10.16.38.25:/home/guest/SPEC2017/benchspec/CPU/521.wrf_r ~/Downloads/[3@11.povray[C[C[C[C[C[C[C[C[C[C[C[C[C[C[C[3P05.mcf[C[C[C[C[C[C[C[C[C[C[C[C[C[C[C[C[C[C[C[C[C[C[C[C[C[C[C[C[C[C[C[C[C[C[C[C[C[C[C[C[C[C[C[C[C[C[C[C[C[C[C[C[C[C[C[C[C[C[Cguest[Kscp -r guest@10.16.38.25:/home/guest/SPEC2017/benchspec/CPU/541.leela_r ~/Downloads/[C[C[C[C[C[C[C[C[C[C[C[C[C[C[C[C[C[C[C[C[C[C[C[C[C[C[C[C[C[C[C[C[C[C[C[C[C[C[C[C[C[C[C[Ccd Downloads/[Kls[Kbin/champsim --warmup_instructions 200000000 --simulation_instructions 250000000 ~/Downloads/641.leela_s-862B.champsimtrace.xz[C[C[C[C[C[C[C[C[C[C[C[C[C[C[C[C[C[C[C[C[C[C[C[C[C[C[C[C[C[C[C[C[C[C[C[C[C[C[C[C[C[C[C[Cmake[Kbin/champsim --warmup_instructions 200000000 --simulation_instructions 250000000 ~/Downloads/641.leela_s-862B.champsimtrace.xz
WARNING: physical memory size is smaller than virtual memory size.
WARNING: option --warmup_instructions is deprecated. Use --warmup-instructions instead.
WARNING: option --simulation_instructions is deprecated. Use --simulation-instructions instead.

*** ChampSim Multicore Out-of-Order Simulator ***
Warmup Instructions: 200000000
Simulation Instructions: 250000000
Number of CPUs: 1
Page size: 4096

Segmentation fault (core dumped)
]0;bhavya@intellab16-OptiPlex-5090: ~/ChampSim[01;32mbhavya@intellab16-OptiPlex-5090[00m:[01;34m~/ChampSim[00m$ bin/champsim --warmup_instructions 200000000 --simulation_instructions 250000000 ~/Downloads/641.leela_s-862B.champsimtrace.xz 
WARNING: physical memory size is smaller than virtual memory size.
WARNING: option --warmup_instructions is deprecated. Use --warmup-instructions instead.
WARNING: option --simulation_instructions is deprecated. Use --simulation-instructions instead.

*** ChampSim Multicore Out-of-Order Simulator ***
Warmup Instructions: 200000000
Simulation Instructions: 250000000
Number of CPUs: 1
Page size: 4096

Segmentation fault (core dumped)
]0;bhavya@intellab16-OptiPlex-5090: ~/ChampSim[01;32mbhavya@intellab16-OptiPlex-5090[00m:[01;34m~/ChampSim[00m$ bin/champsim --warmup_instructions 200000000 --simulation_instructions 250000000 ~/Downloads/641.leela_s-862B.champsimtrace.xz [K[C[C[C[C[C[C[C[C[C[C[C[C[C[C[C[C[C[C[C[C[C[C[C[C[C[C[C[C[C[C[C[C[C[C[C[C[C[C[C[C[C[C[C[C[44Pscp -r guest@10.16.38.25:/home/guest/SPEC2017/benchspec/CPU/521.wrf_r ~/Downloads/[3@11.povray[C[C[C[C[C[C[C[C[C[C[C[C[C[C[C[3P05.mcf[C[C[C[C[C[C[C[C[C[C[C[C[C[C[C[C[C[C[C[C[C[C[C[C[C[C[C[C[C[C[C[C[C[C[C[C[C[C[C[C[C[C[C[C[C[C[C[C[C[C[C[C[C[C[C[C[C[C[Cguest[Kscp -r guest@10.16.38.25:/home/guest/SPEC2017/benchspec/CPU/541.leela_r ~/Downloads/[C[C[C[C[C[C[C[C[C[C[C[C[C[C[C[C[C[C[C[C[C[C[C[C[C[C[C[C[C[C[C[C[C[C[C[C[C[C[C[C[C[C[C[Ccd Downloads/[Kls[Kbin/champsim --warmup_instructions 200000000 --simulation_instructions 250000000 ~/Downloads/641.leela_s-862B.champsimtrace.xz[C[C[C[C[C[C[C[C[C[C[C[C[C[C[C[C[C[C[C[C[C[C[C[C[C[C[C[C[C[C[C[C[C[C[C[C[C[C[C[C[C[C[C[Cmake[K./config.sh champsim_config.json make[K
g++ --std=c++17 -O3 -Wall -Wextra -Wshadow -Wpedantic -Wno-unused-parameter -MMD -I/home/bhavya/ChampSim/inc -isystem /home/bhavya/ChampSim/vcpkg_installed/x64-linux/include -I/home/bhavya/ChampSim/branch/tage -DCHAMPSIM_MODULE -I/home/bhavya/ChampSim/.csconfig/5e59f733/inc -include branchDtage.inc  -c -o /home/bhavya/ChampSim/.csconfig/5e59f733/branchDtage/tage.o /home/bhavya/ChampSim/branch/tage/tage.cc
g++ --std=c++17 -O3 -Wall -Wextra -Wshadow -Wpedantic -MMD -I/home/bhavya/ChampSim/inc -isystem /home/bhavya/ChampSim/vcpkg_installed/x64-linux/include -L/home/bhavya/ChampSim/vcpkg_installed/x64-linux/lib -L/home/bhavya/ChampSim/vcpkg_installed/x64-linux/lib/manual-link  -L/home/bhavya/ChampSim/vcpkg_installed/x64-linux/lib -L/home/bhavya/ChampSim/vcpkg_installed/x64-linux/lib/manual-link -o /home/bhavya/ChampSim/bin/champsim /home/bhavya/ChampSim/.csconfig/5e59f733/obj/channel.o /home/bhavya/ChampSim/.csconfig/5e59f733/obj/ptw.o /home/bhavya/ChampSim/.csconfig/5e59f733/obj/plain_printer.o /home/bhavya/ChampSim/.csconfig/5e59f733/obj/json_printer.o /home/bhavya/ChampSim/.csconfig/5e59f733/obj/tracereader.o /home/bhavya/ChampSim/.csconfig/5e59f733/obj/ooo_cpu.o /home/bhavya/ChampSim/.csconfig/5e59f733/obj/main.o /home/bhavya/ChampSim/.csconfig/5e59f733/obj/cache.o /home/bhavya/ChampSim/.csconfig/5e59f733/obj/champsim.o /home/bhavya/ChampSim/.csconfig/5e59f733/obj/dram_controller.o /home/bhavya/ChampSim/.csconfig/5e59f733/obj/vmem.o /home/bhavya/ChampSim/.csconfig/5e59f733/btbDbasic_btb/basic_btb.o /home/bhavya/ChampSim/.csconfig/5e59f733/branchDtage/tage.o /home/bhavya/ChampSim/.csconfig/5e59f733/prefetcherDno/no.o /home/bhavya/ChampSim/.csconfig/5e59f733/prefetcherDno_instr/no.o /home/bhavya/ChampSim/.csconfig/5e59f733/replacementDlru/lru.o  -llzma -lz -lbz2 -lfmt
]0;bhavya@intellab16-OptiPlex-5090: ~/ChampSim[01;32mbhavya@intellab16-OptiPlex-5090[00m:[01;34m~/ChampSim[00m$ makebin/champsim --warmup_instructions 200000000 --simulation_instructions 250000000 ~/Downloads/641.leela_s-862B.champsimtrace.xz 
WARNING: physical memory size is smaller than virtual memory size.
WARNING: option --warmup_instructions is deprecated. Use --warmup-instructions instead.
WARNING: option --simulation_instructions is deprecated. Use --simulation-instructions instead.

*** ChampSim Multicore Out-of-Order Simulator ***
Warmup Instructions: 200000000
Simulation Instructions: 250000000
Number of CPUs: 1
Page size: 4096

Segmentation fault (core dumped)
]0;bhavya@intellab16-OptiPlex-5090: ~/ChampSim[01;32mbhavya@intellab16-OptiPlex-5090[00m:[01;34m~/ChampSim[00m$ bin/champsim --warmup_instructions 200000000 --simulation_instructions 250000000 ~/Downloads/641.leela_s-862B.champsimtrace.xz [C[C[C[C[C[C[C[C[C[C[C[C[C[C[C[C[C[C[C[C[C[C[C[C[C[C[C[C[C[C[C[C[C[C[C[C[C[C[C[C[C[C[C[Cmake[K
g++ --std=c++17 -O3 -Wall -Wextra -Wshadow -Wpedantic -Wno-unused-parameter -MMD -I/home/bhavya/ChampSim/inc -isystem /home/bhavya/ChampSim/vcpkg_installed/x64-linux/include -I/home/bhavya/ChampSim/branch/tage -DCHAMPSIM_MODULE -I/home/bhavya/ChampSim/.csconfig/5e59f733/inc -include branchDtage.inc  -c -o /home/bhavya/ChampSim/.csconfig/5e59f733/branchDtage/tage.o /home/bhavya/ChampSim/branch/tage/tage.cc
g++ --std=c++17 -O3 -Wall -Wextra -Wshadow -Wpedantic -MMD -I/home/bhavya/ChampSim/inc -isystem /home/bhavya/ChampSim/vcpkg_installed/x64-linux/include -L/home/bhavya/ChampSim/vcpkg_installed/x64-linux/lib -L/home/bhavya/ChampSim/vcpkg_installed/x64-linux/lib/manual-link  -L/home/bhavya/ChampSim/vcpkg_installed/x64-linux/lib -L/home/bhavya/ChampSim/vcpkg_installed/x64-linux/lib/manual-link -o /home/bhavya/ChampSim/bin/champsim /home/bhavya/ChampSim/.csconfig/5e59f733/obj/channel.o /home/bhavya/ChampSim/.csconfig/5e59f733/obj/ptw.o /home/bhavya/ChampSim/.csconfig/5e59f733/obj/plain_printer.o /home/bhavya/ChampSim/.csconfig/5e59f733/obj/json_printer.o /home/bhavya/ChampSim/.csconfig/5e59f733/obj/tracereader.o /home/bhavya/ChampSim/.csconfig/5e59f733/obj/ooo_cpu.o /home/bhavya/ChampSim/.csconfig/5e59f733/obj/main.o /home/bhavya/ChampSim/.csconfig/5e59f733/obj/cache.o /home/bhavya/ChampSim/.csconfig/5e59f733/obj/champsim.o /home/bhavya/ChampSim/.csconfig/5e59f733/obj/dram_controller.o /home/bhavya/ChampSim/.csconfig/5e59f733/obj/vmem.o /home/bhavya/ChampSim/.csconfig/5e59f733/btbDbasic_btb/basic_btb.o /home/bhavya/ChampSim/.csconfig/5e59f733/branchDtage/tage.o /home/bhavya/ChampSim/.csconfig/5e59f733/prefetcherDno/no.o /home/bhavya/ChampSim/.csconfig/5e59f733/prefetcherDno_instr/no.o /home/bhavya/ChampSim/.csconfig/5e59f733/replacementDlru/lru.o  -llzma -lz -lbz2 -lfmt
]0;bhavya@intellab16-OptiPlex-5090: ~/ChampSim[01;32mbhavya@intellab16-OptiPlex-5090[00m:[01;34m~/ChampSim[00m$ makebin/champsim --warmup_instructions 200000000 --simulation_instructions 250000000 ~/Downloads/641.leela_s-862B.champsimtrace.xz 
WARNING: physical memory size is smaller than virtual memory size.
WARNING: option --warmup_instructions is deprecated. Use --warmup-instructions instead.
WARNING: option --simulation_instructions is deprecated. Use --simulation-instructions instead.

*** ChampSim Multicore Out-of-Order Simulator ***
Warmup Instructions: 200000000
Simulation Instructions: 250000000
Number of CPUs: 1
Page size: 4096

Segmentation fault (core dumped)
]0;bhavya@intellab16-OptiPlex-5090: ~/ChampSim[01;32mbhavya@intellab16-OptiPlex-5090[00m:[01;34m~/ChampSim[00m$ bin/champsim --warmup_instructions 200000000 --simulation_instructions 250000000 ~/Downloads/641.leela_s-862B.champsimtrace.xz [C[C[C[C[C[C[C[C[C[C[C[C[C[C[C[C[C[C[C[C[C[C[C[C[C[C[C[C[C[C[C[C[C[C[C[C[C[C[C[C[C[C[C[Cmake[K
g++ --std=c++17 -O3 -Wall -Wextra -Wshadow -Wpedantic -Wno-unused-parameter -MMD -I/home/bhavya/ChampSim/inc -isystem /home/bhavya/ChampSim/vcpkg_installed/x64-linux/include -I/home/bhavya/ChampSim/branch/tage -DCHAMPSIM_MODULE -I/home/bhavya/ChampSim/.csconfig/5e59f733/inc -include branchDtage.inc  -c -o /home/bhavya/ChampSim/.csconfig/5e59f733/branchDtage/tage.o /home/bhavya/ChampSim/branch/tage/tage.cc
g++ --std=c++17 -O3 -Wall -Wextra -Wshadow -Wpedantic -MMD -I/home/bhavya/ChampSim/inc -isystem /home/bhavya/ChampSim/vcpkg_installed/x64-linux/include -L/home/bhavya/ChampSim/vcpkg_installed/x64-linux/lib -L/home/bhavya/ChampSim/vcpkg_installed/x64-linux/lib/manual-link  -L/home/bhavya/ChampSim/vcpkg_installed/x64-linux/lib -L/home/bhavya/ChampSim/vcpkg_installed/x64-linux/lib/manual-link -o /home/bhavya/ChampSim/bin/champsim /home/bhavya/ChampSim/.csconfig/5e59f733/obj/channel.o /home/bhavya/ChampSim/.csconfig/5e59f733/obj/ptw.o /home/bhavya/ChampSim/.csconfig/5e59f733/obj/plain_printer.o /home/bhavya/ChampSim/.csconfig/5e59f733/obj/json_printer.o /home/bhavya/ChampSim/.csconfig/5e59f733/obj/tracereader.o /home/bhavya/ChampSim/.csconfig/5e59f733/obj/ooo_cpu.o /home/bhavya/ChampSim/.csconfig/5e59f733/obj/main.o /home/bhavya/ChampSim/.csconfig/5e59f733/obj/cache.o /home/bhavya/ChampSim/.csconfig/5e59f733/obj/champsim.o /home/bhavya/ChampSim/.csconfig/5e59f733/obj/dram_controller.o /home/bhavya/ChampSim/.csconfig/5e59f733/obj/vmem.o /home/bhavya/ChampSim/.csconfig/5e59f733/btbDbasic_btb/basic_btb.o /home/bhavya/ChampSim/.csconfig/5e59f733/branchDtage/tage.o /home/bhavya/ChampSim/.csconfig/5e59f733/prefetcherDno/no.o /home/bhavya/ChampSim/.csconfig/5e59f733/prefetcherDno_instr/no.o /home/bhavya/ChampSim/.csconfig/5e59f733/replacementDlru/lru.o  -llzma -lz -lbz2 -lfmt
]0;bhavya@intellab16-OptiPlex-5090: ~/ChampSim[01;32mbhavya@intellab16-OptiPlex-5090[00m:[01;34m~/ChampSim[00m$ makebin/champsim --warmup_instructions 200000000 --simulation_instructions 250000000 ~/Downloads/641.leela_s-862B.champsimtrace.xz [C[C[C[C[C[C[C[C[C[C[C[C[C[C[C[C[C[C[C[C[C[C[C[C[C[C[C[C[C[C[C[C[C[C[C[C[C[C[C[C[C[C[C[Cmake[Kbin/champsim --warmup_instructions 200000000 --simulation_instructions 250000000 ~/Downloads/641.leela_s-862B.champsimtrace.xz 
WARNING: physical memory size is smaller than virtual memory size.
WARNING: option --warmup_instructions is deprecated. Use --warmup-instructions instead.
WARNING: option --simulation_instructions is deprecated. Use --simulation-instructions instead.

*** ChampSim Multicore Out-of-Order Simulator ***
Warmup Instructions: 200000000
Simulation Instructions: 250000000
Number of CPUs: 1
Page size: 4096

Off-chip DRAM Size: 4 GiB Channels: 1 Width: 64-bit Data Race: 3200 MT/s
Heartbeat CPU 0 instructions: 10000001 cycles: 2508410 heartbeat IPC: 3.987 cumulative IPC: 3.987 (Simulation time: 00 hr 00 min 25 sec)
Heartbeat CPU 0 instructions: 20000000 cycles: 5017470 heartbeat IPC: 3.986 cumulative IPC: 3.986 (Simulation time: 00 hr 00 min 50 sec)
Heartbeat CPU 0 instructions: 30000003 cycles: 7526527 heartbeat IPC: 3.986 cumulative IPC: 3.986 (Simulation time: 00 hr 01 min 16 sec)
Heartbeat CPU 0 instructions: 40000003 cycles: 10034899 heartbeat IPC: 3.987 cumulative IPC: 3.986 (Simulation time: 00 hr 01 min 41 sec)
Heartbeat CPU 0 instructions: 50000001 cycles: 12543281 heartbeat IPC: 3.987 cumulative IPC: 3.986 (Simulation time: 00 hr 02 min 06 sec)
Heartbeat CPU 0 instructions: 60000000 cycles: 15053057 heartbeat IPC: 3.984 cumulative IPC: 3.986 (Simulation time: 00 hr 02 min 32 sec)
Heartbeat CPU 0 instructions: 70000002 cycles: 17562126 heartbeat IPC: 3.986 cumulative IPC: 3.986 (Simulation time: 00 hr 02 min 57 sec)
Heartbeat CPU 0 instructions: 80000003 cycles: 20071184 heartbeat IPC: 3.986 cumulative IPC: 3.986 (Simulation time: 00 hr 03 min 21 sec)
Heartbeat CPU 0 instructions: 90000003 cycles: 22579552 heartbeat IPC: 3.987 cumulative IPC: 3.986 (Simulation time: 00 hr 03 min 47 sec)
Heartbeat CPU 0 instructions: 100000001 cycles: 25087920 heartbeat IPC: 3.987 cumulative IPC: 3.986 (Simulation time: 00 hr 04 min 12 sec)
Heartbeat CPU 0 instructions: 110000002 cycles: 27596994 heartbeat IPC: 3.986 cumulative IPC: 3.986 (Simulation time: 00 hr 04 min 37 sec)
Heartbeat CPU 0 instructions: 120000001 cycles: 30105368 heartbeat IPC: 3.987 cumulative IPC: 3.986 (Simulation time: 00 hr 05 min 02 sec)
Heartbeat CPU 0 instructions: 130000003 cycles: 32614443 heartbeat IPC: 3.986 cumulative IPC: 3.986 (Simulation time: 00 hr 05 min 28 sec)
Heartbeat CPU 0 instructions: 140000000 cycles: 35123518 heartbeat IPC: 3.986 cumulative IPC: 3.986 (Simulation time: 00 hr 05 min 55 sec)
Heartbeat CPU 0 instructions: 150000001 cycles: 37632575 heartbeat IPC: 3.986 cumulative IPC: 3.986 (Simulation time: 00 hr 06 min 22 sec)
Heartbeat CPU 0 instructions: 160000000 cycles: 40140936 heartbeat IPC: 3.987 cumulative IPC: 3.986 (Simulation time: 00 hr 06 min 47 sec)
Heartbeat CPU 0 instructions: 170000001 cycles: 42650011 heartbeat IPC: 3.986 cumulative IPC: 3.986 (Simulation time: 00 hr 07 min 12 sec)
Heartbeat CPU 0 instructions: 180000002 cycles: 45159783 heartbeat IPC: 3.984 cumulative IPC: 3.986 (Simulation time: 00 hr 07 min 38 sec)
Heartbeat CPU 0 instructions: 190000002 cycles: 47668858 heartbeat IPC: 3.986 cumulative IPC: 3.986 (Simulation time: 00 hr 08 min 03 sec)
Heartbeat CPU 0 instructions: 200000003 cycles: 50177223 heartbeat IPC: 3.987 cumulative IPC: 3.986 (Simulation time: 00 hr 08 min 27 sec)
Warmup finished CPU 0 instructions: 200000003 cycles: 50177224 cumulative IPC: 3.986 (Simulation time: 00 hr 08 min 27 sec)
Warmup complete CPU 0 instructions: 200000003 cycles: 50177224 cumulative IPC: 3.986 (Simulation time: 00 hr 08 min 27 sec)
Heartbeat CPU 0 instructions: 210000001 cycles: 54980725 heartbeat IPC: 2.082 cumulative IPC: 2.082 (Simulation time: 00 hr 09 min 03 sec)
Heartbeat CPU 0 instructions: 220000001 cycles: 59756749 heartbeat IPC: 2.094 cumulative IPC: 2.088 (Simulation time: 00 hr 09 min 38 sec)
Heartbeat CPU 0 instructions: 230000000 cycles: 64541844 heartbeat IPC: 2.09 cumulative IPC: 2.088 (Simulation time: 00 hr 10 min 14 sec)
Heartbeat CPU 0 instructions: 240000000 cycles: 69301410 heartbeat IPC: 2.101 cumulative IPC: 2.092 (Simulation time: 00 hr 10 min 49 sec)
Heartbeat CPU 0 instructions: 250000001 cycles: 74044732 heartbeat IPC: 2.108 cumulative IPC: 2.095 (Simulation time: 00 hr 11 min 24 sec)
Heartbeat CPU 0 instructions: 260000000 cycles: 78810314 heartbeat IPC: 2.098 cumulative IPC: 2.095 (Simulation time: 00 hr 11 min 59 sec)
Heartbeat CPU 0 instructions: 270000000 cycles: 83583921 heartbeat IPC: 2.095 cumulative IPC: 2.095 (Simulation time: 00 hr 12 min 36 sec)
Heartbeat CPU 0 instructions: 280000001 cycles: 88344758 heartbeat IPC: 2.1 cumulative IPC: 2.096 (Simulation time: 00 hr 13 min 12 sec)
Heartbeat CPU 0 instructions: 290000001 cycles: 93137923 heartbeat IPC: 2.086 cumulative IPC: 2.095 (Simulation time: 00 hr 13 min 48 sec)
Heartbeat CPU 0 instructions: 300000003 cycles: 97913160 heartbeat IPC: 2.094 cumulative IPC: 2.095 (Simulation time: 00 hr 14 min 23 sec)
Heartbeat CPU 0 instructions: 310000002 cycles: 102679897 heartbeat IPC: 2.098 cumulative IPC: 2.095 (Simulation time: 00 hr 14 min 59 sec)
Heartbeat CPU 0 instructions: 320000000 cycles: 107470773 heartbeat IPC: 2.087 cumulative IPC: 2.094 (Simulation time: 00 hr 15 min 34 sec)
Heartbeat CPU 0 instructions: 330000002 cycles: 112237652 heartbeat IPC: 2.098 cumulative IPC: 2.095 (Simulation time: 00 hr 16 min 10 sec)
Heartbeat CPU 0 instructions: 340000002 cycles: 117024167 heartbeat IPC: 2.089 cumulative IPC: 2.094 (Simulation time: 00 hr 16 min 46 sec)
Heartbeat CPU 0 instructions: 350000004 cycles: 121783422 heartbeat IPC: 2.101 cumulative IPC: 2.095 (Simulation time: 00 hr 17 min 21 sec)
Heartbeat CPU 0 instructions: 360000004 cycles: 126577434 heartbeat IPC: 2.086 cumulative IPC: 2.094 (Simulation time: 00 hr 17 min 56 sec)
Heartbeat CPU 0 instructions: 370000004 cycles: 131360375 heartbeat IPC: 2.091 cumulative IPC: 2.094 (Simulation time: 00 hr 18 min 32 sec)
Heartbeat CPU 0 instructions: 380000001 cycles: 136159054 heartbeat IPC: 2.084 cumulative IPC: 2.093 (Simulation time: 00 hr 19 min 07 sec)
Heartbeat CPU 0 instructions: 390000003 cycles: 140931628 heartbeat IPC: 2.095 cumulative IPC: 2.094 (Simulation time: 00 hr 19 min 43 sec)
Heartbeat CPU 0 instructions: 400000000 cycles: 145699550 heartbeat IPC: 2.097 cumulative IPC: 2.094 (Simulation time: 00 hr 20 min 18 sec)
Heartbeat CPU 0 instructions: 410000004 cycles: 150471479 heartbeat IPC: 2.096 cumulative IPC: 2.094 (Simulation time: 00 hr 20 min 54 sec)
Heartbeat CPU 0 instructions: 420000000 cycles: 155278224 heartbeat IPC: 2.08 cumulative IPC: 2.093 (Simulation time: 00 hr 21 min 30 sec)
Heartbeat CPU 0 instructions: 430000003 cycles: 160035496 heartbeat IPC: 2.102 cumulative IPC: 2.094 (Simulation time: 00 hr 22 min 06 sec)
Heartbeat CPU 0 instructions: 440000000 cycles: 164804463 heartbeat IPC: 2.097 cumulative IPC: 2.094 (Simulation time: 00 hr 22 min 42 sec)
Heartbeat CPU 0 instructions: 450000002 cycles: 169582308 heartbeat IPC: 2.093 cumulative IPC: 2.094 (Simulation time: 00 hr 23 min 18 sec)
Simulation finished CPU 0 instructions: 250000001 cycles: 119405086 cumulative IPC: 2.094 (Simulation time: 00 hr 23 min 18 sec)
Simulation complete CPU 0 instructions: 250000001 cycles: 119405086 cumulative IPC: 2.094 (Simulation time: 00 hr 23 min 18 sec)

ChampSim completed all CPUs

=== Simulation ===
CPU 0 runs /home/bhavya/Downloads/641.leela_s-862B.champsimtrace.xz
Region of Interest Statistics

CPU 0 cumulative IPC: 2.094 instructions: 250000001 cycles: 119405086
CPU 0 Branch Prediction Accuracy: 91.2% MPKI: 14.46 Average ROB Occupancy at Mispredict: 25.5
Branch type MPKI
BRANCH_DIRECT_JUMP: 0.177
BRANCH_INDIRECT: 0.00044
BRANCH_CONDITIONAL: 13.9
BRANCH_DIRECT_CALL: 0.339
BRANCH_INDIRECT_CALL: 0
BRANCH_RETURN: 0.0428

LLC TOTAL        ACCESS:       5367 HIT:       3665 MISS:       1702
LLC LOAD         ACCESS:       3167 HIT:       2708 MISS:        459
LLC RFO          ACCESS:       1212 HIT:          3 MISS:       1209
LLC PREFETCH     ACCESS:          0 HIT:          0 MISS:          0
LLC WRITE        ACCESS:        912 HIT:        912 MISS:          0
LLC TRANSLATION  ACCESS:         76 HIT:         42 MISS:         34
LLC PREFETCH REQUESTED:          0 ISSUED:          0 USEFUL:          0 USELESS:          0
LLC AVERAGE MISS LATENCY: 109.2 cycles
cpu0_DTLB TOTAL        ACCESS:   57939917 HIT:   57786530 MISS:     153387
cpu0_DTLB LOAD         ACCESS:   57939917 HIT:   57786530 MISS:     153387
cpu0_DTLB RFO          ACCESS:          0 HIT:          0 MISS:          0
cpu0_DTLB PREFETCH     ACCESS:          0 HIT:          0 MISS:          0
cpu0_DTLB WRITE        ACCESS:          0 HIT:          0 MISS:          0
cpu0_DTLB TRANSLATION  ACCESS:          0 HIT:          0 MISS:          0
cpu0_DTLB PREFETCH REQUESTED:          0 ISSUED:          0 USEFUL:          0 USELESS:          0
cpu0_DTLB AVERAGE MISS LATENCY: 5.426 cycles
cpu0_ITLB TOTAL        ACCESS:   11271723 HIT:   11271723 MISS:          0
cpu0_ITLB LOAD         ACCESS:   11271723 HIT:   11271723 MISS:          0
cpu0_ITLB RFO          ACCESS:          0 HIT:          0 MISS:          0
cpu0_ITLB PREFETCH     ACCESS:          0 HIT:          0 MISS:          0
cpu0_ITLB WRITE        ACCESS:          0 HIT:          0 MISS:          0
cpu0_ITLB TRANSLATION  ACCESS:          0 HIT:          0 MISS:          0
cpu0_ITLB PREFETCH REQUESTED:          0 ISSUED:          0 USEFUL:          0 USELESS:          0
cpu0_ITLB AVERAGE MISS LATENCY: -nan cycles
cpu0_L1D TOTAL        ACCESS:   76282879 HIT:   75298267 MISS:     984612
cpu0_L1D LOAD         ACCESS:   47261779 HIT:   46540550 MISS:     721229
cpu0_L1D RFO          ACCESS:          0 HIT:          0 MISS:          0
cpu0_L1D PREFETCH     ACCESS:          0 HIT:          0 MISS:          0
cpu0_L1D WRITE        ACCESS:   29020925 HIT:   28757713 MISS:     263212
cpu0_L1D TRANSLATION  ACCESS:        175 HIT:          4 MISS:        171
cpu0_L1D PREFETCH REQUESTED:          0 ISSUED:          0 USEFUL:          0 USELESS:          0
cpu0_L1D AVERAGE MISS LATENCY: 4.263 cycles
cpu0_L1I TOTAL        ACCESS:   12716245 HIT:   12690894 MISS:      25351
cpu0_L1I LOAD         ACCESS:   12716245 HIT:   12690894 MISS:      25351
cpu0_L1I RFO          ACCESS:          0 HIT:          0 MISS:          0
cpu0_L1I PREFETCH     ACCESS:          0 HIT:          0 MISS:          0
cpu0_L1I WRITE        ACCESS:          0 HIT:          0 MISS:          0
cpu0_L1I TRANSLATION  ACCESS:          0 HIT:          0 MISS:          0
cpu0_L1I PREFETCH REQUESTED:          0 ISSUED:          0 USEFUL:          0 USELESS:          0
cpu0_L1I AVERAGE MISS LATENCY: 5.063 cycles
cpu0_L2C TOTAL        ACCESS:     602301 HIT:     597845 MISS:       4456
cpu0_L2C LOAD         ACCESS:     451293 HIT:     448126 MISS:       3167
cpu0_L2C RFO          ACCESS:      52834 HIT:      51622 MISS:       1212
cpu0_L2C PREFETCH     ACCESS:          0 HIT:          0 MISS:          0
cpu0_L2C WRITE        ACCESS:      98003 HIT:      98002 MISS:          1
cpu0_L2C TRANSLATION  ACCESS:        171 HIT:         95 MISS:         76
cpu0_L2C PREFETCH REQUESTED:          0 ISSUED:          0 USEFUL:          0 USELESS:          0
cpu0_L2C AVERAGE MISS LATENCY: 62.07 cycles
cpu0_STLB TOTAL        ACCESS:     111635 HIT:     111460 MISS:        175
cpu0_STLB LOAD         ACCESS:     111635 HIT:     111460 MISS:        175
cpu0_STLB RFO          ACCESS:          0 HIT:          0 MISS:          0
cpu0_STLB PREFETCH     ACCESS:          0 HIT:          0 MISS:          0
cpu0_STLB WRITE        ACCESS:          0 HIT:          0 MISS:          0
cpu0_STLB TRANSLATION  ACCESS:          0 HIT:          0 MISS:          0
cpu0_STLB PREFETCH REQUESTED:          0 ISSUED:          0 USEFUL:          0 USELESS:          0
cpu0_STLB AVERAGE MISS LATENCY: 258.2 cycles

DRAM Statistics

Channel 0 RQ ROW_BUFFER_HIT:       1034
  ROW_BUFFER_MISS:        668
 AVG DBUS CONGESTED CYCLE: 3.837
WQ ROW_BUFFER_HIT: Channel 0 
  ROW_BUFFER_MISS:          0
  FULL:          0
]0;bhavya@intellab16-OptiPlex-5090: ~/ChampSim[01;32mbhavya@intellab16-OptiPlex-5090[00m:[01;34m~/ChampSim[00m$ exit
exit

Script done on 2023-09-26 12:34:33+05:30 [COMMAND_EXIT_CODE="0"]
